---- qbsp / ericw-tools  ----
Input file: b_rock1.map
Output file: b_rock1.bsp

---- LoadMapFile ----
*** WARNING 05: No info_player_start entity in level
*** WARNING 06: No info_player_deathmatch entities in level
           12 faces
            2 brushes
            2 entities
            3 unique texnames
           12 texinfo

Opened WAD: /home/lavender/LibreQuake/texture-wads/lq_ammo.wad
Processing hull 0...
---- Brush_LoadEntity ----
            0 brushes
            2 detail wall
            7 planes
---- CSGFaces ----
           12 brushfaces
           10 csgfaces
           16 mergedfaces
---- SolidBSP ----
            6 split nodes
            0 solid leafs
            6 empty leafs
            0 water leafs
            1 detail leafs
            0 detail illusionary leafs
            0 detail fence leafs
            0 illusionary visblocker leafs
           16 leaffaces
           16 nodefaces
---- Portalize ----
            7 vis leafs
            7 vis clusters
           12 vis portals
---- FillOutside ----
*** WARNING 19: No entities in empty space -- no filling performed (hull 0)
---- MakeFaceEdges ----
---- GrowRegions ----
Processing hull 1...
*** WARNING 19: No entities in empty space -- no filling performed (hull 1)
Processing hull 2...
*** WARNING 19: No entities in empty space -- no filling performed (hull 2)
*** WARNING 16: Texture skip not found
---- WriteBSPFile ----
Wrote b_rock1.bsp
           17 planes              340
           12 vertexes            144
            6 nodes               144
           10 texinfo             400
           10 faces               200
           12 clipnodes            96
            7 leafs               196
           10 marksurfaces         20
           40 surfedges           160
           21 edges                84
            4 textures           1840
              lightdata             0
              visdata               0
              entdata             108

0.001 seconds elapsed
Peak memory usage: 82772 (80.8k)
