---- qbsp / ericw-tools  ----
Input file: Clay_draft1.map
Output file: Clay_draft1.bsp

---- LoadMapFile ----
WARNING: repairing invalid texture projection on line 10 ("stonbr01" near -96 273 -66)
WARNING: repairing invalid texture projection on line 11 ("stonbr01" near 96 49 -66)
WARNING: repairing invalid texture projection on line 12 ("stonbr01" near -96 49 -88)
WARNING: repairing invalid texture projection on line 13 ("stonbr01" near 96 273 -66)
WARNING: repairing invalid texture projection on line 14 ("stonbr01" near 96 273 -88)
WARNING: repairing invalid texture projection on line 15 ("stonbr01" near 96 273 -88)
WARNING: repairing invalid texture projection on line 19 ("csl_brk14b" near -320 49 -84)
WARNING: repairing invalid texture projection on line 20 ("csl_brk14b" near 320 33 -84)
WARNING: repairing invalid texture projection on line 21 ("csl_brk14b" near -320 33 -176)
WARNING: repairing invalid texture projection on line 22 ("csl_brk14b" near 320 49 -84)
WARNING: repairing invalid texture projection on line 23 ("csl_brk14b" near 320 49 -176)
WARNING: repairing invalid texture projection on line 24 ("csl_brk14b" near 320 49 -176)
WARNING: repairing invalid texture projection on line 28 ("csl_brk14b" near -320 289 -84)
WARNING: repairing invalid texture projection on line 29 ("csl_brk14b" near 320 273 -84)
WARNING: repairing invalid texture projection on line 30 ("csl_brk14b" near -320 273 -176)
WARNING: repairing invalid texture projection on line 31 ("csl_brk14b" near 320 289 -84)
WARNING: repairing invalid texture projection on line 32 ("csl_brk14b" near 320 289 -176)
WARNING: repairing invalid texture projection on line 33 ("csl_brk14b" near 320 289 -176)
WARNING: repairing invalid texture projection on line 37 ("csl_brk14b" near 304 273 -84)
WARNING: repairing invalid texture projection on line 38 ("csl_brk14b" near 320 49 -84)
WARNING: repairing invalid texture projection on line 39 ("csl_brk14b" near 304 49 -176)
WARNING: repairing invalid texture projection on line 40 ("csl_brk14b" near 320 273 -84)
WARNING: repairing invalid texture projection on line 41 ("csl_brk14b" near 320 273 -176)
WARNING: repairing invalid texture projection on line 42 ("csl_brk14b" near 320 273 -176)
WARNING: repairing invalid texture projection on line 46 ("csl_brk14b" near -304 273 -158)
WARNING: repairing invalid texture projection on line 47 ("csl_brk14b" near 304 49 -158)
WARNING: repairing invalid texture projection on line 48 ("csl_brk14b" near -304 49 -176)
WARNING: repairing invalid texture projection on line 49 ("csl_brk14b" near 304 273 -158)
WARNING: repairing invalid texture projection on line 50 ("csl_brk14b" near 304 273 -176)
WARNING: repairing invalid texture projection on line 51 ("csl_brk14b" near 304 273 -176)
WARNING: repairing invalid texture projection on line 55 ("csl_brk14b" near -320 273 -84)
WARNING: repairing invalid texture projection on line 56 ("csl_brk14b" near -304 49 -84)
WARNING: repairing invalid texture projection on line 57 ("csl_brk14b" near -320 49 -176)
WARNING: repairing invalid texture projection on line 58 ("csl_brk14b" near -304 273 -84)
WARNING: repairing invalid texture projection on line 59 ("csl_brk14b" near -304 273 -176)
WARNING: repairing invalid texture projection on line 60 ("csl_brk14b" near -304 273 -176)
WARNING: repairing invalid texture projection on line 64 ("stonbr01" near -240 49 -66)
WARNING: repairing invalid texture projection on line 65 ("stonbr01" near 240 -464 -66)
WARNING: repairing invalid texture projection on line 66 ("stonbr01" near -240 -464 -84)
WARNING: repairing invalid texture projection on line 67 ("stonbr01" near 240 49 -66)
WARNING: repairing invalid texture projection on line 68 ("stonbr01" near 240 49 -84)
WARNING: repairing invalid texture projection on line 69 ("stonbr01" near 240 49 -84)
WARNING: repairing invalid texture projection on line 73 ("sq_flat5_0b" near 256 -383 99)
WARNING: repairing invalid texture projection on line 74 ("sq_flat5_0b" near 256 1 85)
WARNING: repairing invalid texture projection on line 75 ("sq_flat5_0b" near 304 -383 67)
WARNING: repairing invalid texture projection on line 76 ("sq_flat5_0b" near 304 1 81)
WARNING: repairing invalid texture projection on line 77 ("sq_flat5_0b" near 304 -383 81)
WARNING: repairing invalid texture projection on line 78 ("sq_flat5_0b" near 304 -383 67)
WARNING: repairing invalid texture projection on line 82 ("sq_flat5_0b" near 192 -383 122)
WARNING: repairing invalid texture projection on line 83 ("sq_flat5_0b" near 192 1 108)
WARNING: repairing invalid texture projection on line 84 ("sq_flat5_0b" near 256 -383 85)
WARNING: repairing invalid texture projection on line 85 ("sq_flat5_0b" near 256 1 99)
WARNING: repairing invalid texture projection on line 86 ("sq_flat5_0b" near 256 -383 99)
WARNING: repairing invalid texture projection on line 87 ("sq_flat5_0b" near 256 -383 85)
WARNING: repairing invalid texture projection on line 91 ("sq_flat5_0b" near 128 -423 136)
WARNING: repairing invalid texture projection on line 92 ("sq_flat5_0b" near 128 1 122)
WARNING: repairing invalid texture projection on line 93 ("sq_flat5_0b" near 128 1 136)
WARNING: repairing invalid texture projection on line 94 ("sq_flat5_0b" near 192 -383 122)
WARNING: repairing invalid texture projection on line 95 ("sq_flat5_0b" near 192 -383 108)
WARNING: repairing invalid texture projection on line 96 ("sq_flat5_0b" near 192 1 108)
WARNING: repairing invalid texture projection on line 100 ("sq_flat5_0b" near 64 -447 145)
WARNING: repairing invalid texture projection on line 101 ("sq_flat5_0b" near 64 -144 131)
WARNING: repairing invalid texture projection on line 102 ("sq_flat5_0b" near 64 -144 145)
WARNING: repairing invalid texture projection on line 103 ("sq_flat5_0b" near 128 -423 136)
WARNING: repairing invalid texture projection on line 104 ("sq_flat5_0b" near 128 -423 122)
WARNING: repairing invalid texture projection on line 105 ("sq_flat5_0b" near 128 -144 122)
WARNING: repairing invalid texture projection on line 109 ("sq_flat5_0b" near 0 -455 150)
WARNING: repairing invalid texture projection on line 110 ("sq_flat5_0b" near 0 -144 136)
WARNING: repairing invalid texture projection on line 111 ("sq_flat5_0b" near 0 -144 150)
WARNING: repairing invalid texture projection on line 112 ("sq_flat5_0b" near 64 -447 145)
WARNING: repairing invalid texture projection on line 113 ("sq_flat5_0b" near 64 -447 131)
WARNING: repairing invalid texture projection on line 114 ("sq_flat5_0b" near 64 -144 131)
WARNING: repairing invalid texture projection on line 118 ("sq_flat5_0b" near -64 -144 145)
WARNING: repairing invalid texture projection on line 119 ("sq_flat5_0b" near -64 -447 131)
WARNING: repairing invalid texture projection on line 120 ("sq_flat5_0b" near 0 -455 150)
WARNING: repairing invalid texture projection on line 121 ("sq_flat5_0b" near 0 -144 136)
WARNING: repairing invalid texture projection on line 122 ("sq_flat5_0b" near 0 -455 136)
WARNING: repairing invalid texture projection on line 123 ("sq_flat5_0b" near 0 -455 136)
WARNING: repairing invalid texture projection on line 127 ("sq_flat5_0b" near -128 -144 136)
WARNING: repairing invalid texture projection on line 128 ("sq_flat5_0b" near -128 -423 122)
WARNING: repairing invalid texture projection on line 129 ("sq_flat5_0b" near -64 -447 145)
WARNING: repairing invalid texture projection on line 130 ("sq_flat5_0b" near -64 -144 131)
WARNING: repairing invalid texture projection on line 131 ("sq_flat5_0b" near -64 -447 131)
WARNING: repairing invalid texture projection on line 132 ("sq_flat5_0b" near -64 -447 131)
WARNING: repairing invalid texture projection on line 136 ("sq_flat5_0b" near -192 1 122)
WARNING: repairing invalid texture projection on line 137 ("sq_flat5_0b" near -192 -383 108)
WARNING: repairing invalid texture projection on line 138 ("sq_flat5_0b" near -128 -423 136)
WARNING: repairing invalid texture projection on line 139 ("sq_flat5_0b" near -128 1 122)
WARNING: repairing invalid texture projection on line 140 ("sq_flat5_0b" near -128 -423 122)
WARNING: repairing invalid texture projection on line 141 ("sq_flat5_0b" near -128 -423 122)
WARNING: repairing invalid texture projection on line 145 ("sq_flat5_0b" near -304 1 67)
WARNING: repairing invalid texture projection on line 146 ("sq_flat5_0b" near -256 1 99)
WARNING: repairing invalid texture projection on line 147 ("sq_flat5_0b" near -304 -383 81)
WARNING: repairing invalid texture projection on line 148 ("sq_flat5_0b" near -256 1 85)
WARNING: repairing invalid texture projection on line 149 ("sq_flat5_0b" near -256 -383 85)
WARNING: repairing invalid texture projection on line 150 ("sq_flat5_0b" near -256 -383 85)
WARNING: repairing invalid texture projection on line 154 ("sq_flat5_0b" near -256 1 85)
WARNING: repairing invalid texture projection on line 155 ("sq_flat5_0b" near -192 1 122)
WARNING: repairing invalid texture projection on line 156 ("sq_flat5_0b" near -256 -383 99)
WARNING: repairing invalid texture projection on line 157 ("sq_flat5_0b" near -192 1 108)
WARNING: repairing invalid texture projection on line 158 ("sq_flat5_0b" near -192 -383 108)
WARNING: repairing invalid texture projection on line 159 ("sq_flat5_0b" near -192 -383 108)
WARNING: repairing invalid texture projection on line 163 ("sq_flat5_0b" near 256 1 99)
WARNING: repairing invalid texture projection on line 164 ("sq_flat5_0b" near 256 273 85)
WARNING: repairing invalid texture projection on line 165 ("sq_flat5_0b" near 304 1 67)
WARNING: repairing invalid texture projection on line 166 ("sq_flat5_0b" near 304 273 81)
WARNING: repairing invalid texture projection on line 167 ("sq_flat5_0b" near 304 1 81)
WARNING: repairing invalid texture projection on line 168 ("sq_flat5_0b" near 304 1 67)
WARNING: repairing invalid texture projection on line 172 ("sq_flat5_0b" near 192 1 122)
WARNING: repairing invalid texture projection on line 173 ("sq_flat5_0b" near 192 273 108)
WARNING: repairing invalid texture projection on line 174 ("sq_flat5_0b" near 256 1 85)
WARNING: repairing invalid texture projection on line 175 ("sq_flat5_0b" near 256 273 99)
WARNING: repairing invalid texture projection on line 176 ("sq_flat5_0b" near 256 1 99)
WARNING: repairing invalid texture projection on line 177 ("sq_flat5_0b" near 256 1 85)
WARNING: repairing invalid texture projection on line 181 ("sq_flat5_0b" near 128 1 136)
WARNING: repairing invalid texture projection on line 182 ("sq_flat5_0b" near 128 273 122)
WARNING: repairing invalid texture projection on line 183 ("sq_flat5_0b" near 192 1 108)
WARNING: repairing invalid texture projection on line 184 ("sq_flat5_0b" near 192 273 122)
WARNING: repairing invalid texture projection on line 185 ("sq_flat5_0b" near 192 1 122)
WARNING: repairing invalid texture projection on line 186 ("sq_flat5_0b" near 192 1 108)
WARNING: repairing invalid texture projection on line 190 ("wall10" near 240 49 -84)
WARNING: repairing invalid texture projection on line 191 ("wall10" near 240 -383 -66)
WARNING: repairing invalid texture projection on line 192 ("wall10" near 240 -383 -84)
WARNING: repairing invalid texture projection on line 193 ("wall10" near 304 49 -84)
WARNING: repairing invalid texture projection on line 194 ("wall10" near 304 49 -29)
WARNING: repairing invalid texture projection on line 195 ("wall10" near 304 -383 -29)
WARNING: repairing invalid texture projection on line 199 ("wall10" near -304 49 -29)
WARNING: repairing invalid texture projection on line 200 ("wall10" near -304 -383 -84)
WARNING: repairing invalid texture projection on line 201 ("wall10" near -304 49 -84)
WARNING: repairing invalid texture projection on line 202 ("wall10" near -240 49 -66)
WARNING: repairing invalid texture projection on line 203 ("wall10" near -240 -383 -66)
WARNING: repairing invalid texture projection on line 204 ("wall10" near -240 -383 -84)
WARNING: repairing invalid texture projection on line 208 ("wall530" near 240 673 -57)
WARNING: repairing invalid texture projection on line 209 ("wall530" near 304 481 -57)
WARNING: repairing invalid texture projection on line 210 ("wall530" near 240 481 -75)
WARNING: repairing invalid texture projection on line 211 ("wall530" near 304 673 -57)
WARNING: repairing invalid texture projection on line 212 ("wall530" near 304 673 -75)
WARNING: repairing invalid texture projection on line 213 ("wall530" near 304 673 -75)
WARNING: repairing invalid texture projection on line 217 ("csl_brk14b" near 304 273 67)
WARNING: repairing invalid texture projection on line 218 ("csl_brk14b" near 320 -383 67)
WARNING: repairing invalid texture projection on line 219 ("csl_brk14b" near 304 -383 -84)
WARNING: repairing invalid texture projection on line 220 ("csl_brk14b" near 320 273 67)
WARNING: repairing invalid texture projection on line 221 ("csl_brk14b" near 320 273 -84)
WARNING: repairing invalid texture projection on line 222 ("csl_brk14b" near 320 273 -84)
WARNING: repairing invalid texture projection on line 226 ("wall530" near 304 673 -48)
WARNING: repairing invalid texture projection on line 227 ("wall530" near 368 481 -48)
WARNING: repairing invalid texture projection on line 228 ("wall530" near 304 481 -66)
WARNING: repairing invalid texture projection on line 229 ("wall530" near 368 673 -48)
WARNING: repairing invalid texture projection on line 230 ("wall530" near 368 673 -66)
WARNING: repairing invalid texture projection on line 231 ("wall530" near 368 673 -66)
WARNING: repairing invalid texture projection on line 235 ("wall530" near 368 673 -38)
WARNING: repairing invalid texture projection on line 236 ("wall530" near 432 481 -38)
WARNING: repairing invalid texture projection on line 237 ("wall530" near 368 481 -57)
WARNING: repairing invalid texture projection on line 238 ("wall530" near 432 673 -38)
WARNING: repairing invalid texture projection on line 239 ("wall530" near 432 673 -57)
WARNING: repairing invalid texture projection on line 240 ("wall530" near 432 673 -57)
WARNING: repairing invalid texture projection on line 244 ("wall530" near 432 673 -29)
WARNING: repairing invalid texture projection on line 245 ("wall530" near 496 481 -29)
WARNING: repairing invalid texture projection on line 246 ("wall530" near 432 481 -48)
WARNING: repairing invalid texture projection on line 247 ("wall530" near 496 673 -29)
WARNING: repairing invalid texture projection on line 248 ("wall530" near 496 673 -48)
WARNING: repairing invalid texture projection on line 249 ("wall530" near 496 673 -48)
WARNING: repairing invalid texture projection on line 253 ("wall530" near 496 673 -20)
WARNING: repairing invalid texture projection on line 254 ("wall530" near 960 481 -20)
WARNING: repairing invalid texture projection on line 255 ("wall530" near 496 481 -38)
WARNING: repairing invalid texture projection on line 256 ("wall530" near 960 673 -20)
WARNING: repairing invalid texture projection on line 257 ("wall530" near 960 673 -38)
WARNING: repairing invalid texture projection on line 258 ("wall530" near 960 673 -38)
WARNING: repairing invalid texture projection on line 262 ("wall10" near 304 273 -29)
WARNING: repairing invalid texture projection on line 263 ("wall10" near 323 273 -84)
WARNING: repairing invalid texture projection on line 264 ("wall10" near 304 481 -84)
WARNING: repairing invalid texture projection on line 265 ("wall10" near 323 273 -29)
WARNING: repairing invalid texture projection on line 266 ("wall10" near 496 481 -29)
WARNING: repairing invalid texture projection on line 267 ("wall10" near 496 465 -29)
WARNING: repairing invalid texture projection on line 268 ("wall10" near 496 481 -29)
WARNING: repairing invalid texture projection on line 272 ("csl_brk14b" near 496 481 63)
WARNING: repairing invalid texture projection on line 273 ("csl_brk14b" near 960 465 63)
WARNING: repairing invalid texture projection on line 274 ("csl_brk14b" near 496 465 -66)
WARNING: repairing invalid texture projection on line 275 ("csl_brk14b" near 960 481 63)
WARNING: repairing invalid texture projection on line 276 ("csl_brk14b" near 960 481 -66)
WARNING: repairing invalid texture projection on line 277 ("csl_brk14b" near 960 481 -66)
WARNING: repairing invalid texture projection on line 281 ("csl_brk14b" near 304 273 63)
WARNING: repairing invalid texture projection on line 282 ("csl_brk14b" near 320 273 63)
WARNING: repairing invalid texture projection on line 283 ("csl_brk14b" near 304 273 -29)
WARNING: repairing invalid texture projection on line 284 ("csl_brk14b" near 496 465 63)
WARNING: repairing invalid texture projection on line 285 ("csl_brk14b" near 496 465 -29)
WARNING: repairing invalid texture projection on line 286 ("csl_brk14b" near 496 481 -29)
WARNING: repairing invalid texture projection on line 290 ("sq_flat5_0b" near 304 273 95)
WARNING: repairing invalid texture projection on line 291 ("sq_flat5_0b" near 408 377 63)
WARNING: repairing invalid texture projection on line 292 ("sq_flat5_0b" near 496 481 95)
WARNING: repairing invalid texture projection on line 293 ("sq_flat5_0b" near 304 481 63)
WARNING: repairing invalid texture projection on line 294 ("sq_flat5_0b" near 408 377 95)
WARNING: repairing invalid texture projection on line 295 ("sq_flat5_0b" near 496 481 95)
WARNING: repairing invalid texture projection on line 299 ("wall10" near -304 481 -29)
WARNING: repairing invalid texture projection on line 300 ("wall10" near -304 273 -84)
WARNING: repairing invalid texture projection on line 301 ("wall10" near -304 481 -84)
WARNING: repairing invalid texture projection on line 302 ("wall10" near -240 481 -66)
WARNING: repairing invalid texture projection on line 303 ("wall10" near -240 273 -66)
WARNING: repairing invalid texture projection on line 304 ("wall10" near -240 273 -84)
WARNING: repairing invalid texture projection on line 308 ("wall10" near -496 481 -29)
WARNING: repairing invalid texture projection on line 309 ("wall10" near -496 465 -84)
WARNING: repairing invalid texture projection on line 310 ("wall10" near -323 273 -84)
WARNING: repairing invalid texture projection on line 311 ("wall10" near -496 481 -84)
WARNING: repairing invalid texture projection on line 312 ("wall10" near -323 273 -29)
WARNING: repairing invalid texture projection on line 313 ("wall10" near -304 481 -29)
WARNING: repairing invalid texture projection on line 314 ("wall10" near -304 481 -84)
WARNING: repairing invalid texture projection on line 318 ("csl_brk14b" near -496 481 -29)
WARNING: repairing invalid texture projection on line 319 ("csl_brk14b" near -320 273 -29)
WARNING: repairing invalid texture projection on line 320 ("csl_brk14b" near -304 273 63)
WARNING: repairing invalid texture projection on line 321 ("csl_brk14b" near -304 273 -29)
WARNING: repairing invalid texture projection on line 322 ("csl_brk14b" near -496 465 63)
WARNING: repairing invalid texture projection on line 323 ("csl_brk14b" near -304 273 63)
WARNING: repairing invalid texture projection on line 327 ("csl_brk14b" near -960 481 63)
WARNING: repairing invalid texture projection on line 328 ("csl_brk14b" near -496 465 63)
WARNING: repairing invalid texture projection on line 329 ("csl_brk14b" near -960 465 -66)
WARNING: repairing invalid texture projection on line 330 ("csl_brk14b" near -496 481 63)
WARNING: repairing invalid texture projection on line 331 ("csl_brk14b" near -496 481 -66)
WARNING: repairing invalid texture projection on line 332 ("csl_brk14b" near -496 481 -66)
WARNING: repairing invalid texture projection on line 336 ("wall530" near -960 673 -20)
WARNING: repairing invalid texture projection on line 337 ("wall530" near -496 481 -20)
WARNING: repairing invalid texture projection on line 338 ("wall530" near -960 481 -38)
WARNING: repairing invalid texture projection on line 339 ("wall530" near -496 673 -20)
WARNING: repairing invalid texture projection on line 340 ("wall530" near -496 673 -38)
WARNING: repairing invalid texture projection on line 341 ("wall530" near -496 673 -38)
WARNING: repairing invalid texture projection on line 345 ("wall530" near -496 673 -29)
WARNING: repairing invalid texture projection on line 346 ("wall530" near -432 481 -29)
WARNING: repairing invalid texture projection on line 347 ("wall530" near -496 481 -48)
WARNING: repairing invalid texture projection on line 348 ("wall530" near -432 673 -29)
WARNING: repairing invalid texture projection on line 349 ("wall530" near -432 673 -48)
WARNING: repairing invalid texture projection on line 350 ("wall530" near -432 673 -48)
WARNING: repairing invalid texture projection on line 354 ("wall530" near -432 673 -38)
WARNING: repairing invalid texture projection on line 355 ("wall530" near -368 481 -38)
WARNING: repairing invalid texture projection on line 356 ("wall530" near -432 481 -57)
WARNING: repairing invalid texture projection on line 357 ("wall530" near -368 673 -38)
WARNING: repairing invalid texture projection on line 358 ("wall530" near -368 673 -57)
WARNING: repairing invalid texture projection on line 359 ("wall530" near -368 673 -57)
WARNING: repairing invalid texture projection on line 363 ("wall530" near -368 673 -48)
WARNING: repairing invalid texture projection on line 364 ("wall530" near -304 481 -48)
WARNING: repairing invalid texture projection on line 365 ("wall530" near -368 481 -66)
WARNING: repairing invalid texture projection on line 366 ("wall530" near -304 673 -48)
WARNING: repairing invalid texture projection on line 367 ("wall530" near -304 673 -66)
WARNING: repairing invalid texture projection on line 368 ("wall530" near -304 673 -66)
WARNING: repairing invalid texture projection on line 372 ("wall530" near -304 673 -57)
WARNING: repairing invalid texture projection on line 373 ("wall530" near -240 481 -57)
WARNING: repairing invalid texture projection on line 374 ("wall530" near -304 481 -75)
WARNING: repairing invalid texture projection on line 375 ("wall530" near -240 673 -57)
WARNING: repairing invalid texture projection on line 376 ("wall530" near -240 673 -75)
WARNING: repairing invalid texture projection on line 377 ("wall530" near -240 673 -75)
WARNING: repairing invalid texture projection on line 381 ("sq_flat5_0b" near -496 481 63)
WARNING: repairing invalid texture projection on line 382 ("sq_flat5_0b" near -304 273 63)
WARNING: repairing invalid texture projection on line 383 ("sq_flat5_0b" near -496 481 63)
WARNING: repairing invalid texture projection on line 384 ("sq_flat5_0b" near -408 377 95)
WARNING: repairing invalid texture projection on line 385 ("sq_flat5_0b" near -304 481 95)
WARNING: repairing invalid texture projection on line 386 ("sq_flat5_0b" near -304 273 63)
WARNING: repairing invalid texture projection on line 390 ("csl_brk14b" near 496 689 63)
WARNING: repairing invalid texture projection on line 391 ("csl_brk14b" near 960 673 63)
WARNING: repairing invalid texture projection on line 392 ("csl_brk14b" near 496 673 -66)
WARNING: repairing invalid texture projection on line 393 ("csl_brk14b" near 960 689 63)
WARNING: repairing invalid texture projection on line 394 ("csl_brk14b" near 960 689 -66)
WARNING: repairing invalid texture projection on line 395 ("csl_brk14b" near 960 689 -66)
WARNING: repairing invalid texture projection on line 399 ("csl_brk14b" near 496 673 63)
WARNING: repairing invalid texture projection on line 400 ("csl_brk14b" near 496 673 -29)
WARNING: repairing invalid texture projection on line 401 ("csl_brk14b" near 304 881 63)
WARNING: repairing invalid texture projection on line 402 ("csl_brk14b" near 320 881 -29)
WARNING: repairing invalid texture projection on line 403 ("csl_brk14b" near 496 689 63)
WARNING: repairing invalid texture projection on line 404 ("csl_brk14b" near 496 673 63)
WARNING: repairing invalid texture projection on line 408 ("wall10" near 304 673 -29)
WARNING: repairing invalid texture projection on line 409 ("wall10" near 496 673 -84)
WARNING: repairing invalid texture projection on line 410 ("wall10" near 496 689 -84)
WARNING: repairing invalid texture projection on line 411 ("wall10" near 304 881 -29)
WARNING: repairing invalid texture projection on line 412 ("wall10" near 323 881 -84)
WARNING: repairing invalid texture projection on line 413 ("wall10" near 496 689 -29)
WARNING: repairing invalid texture projection on line 414 ("wall10" near 496 673 -29)
WARNING: repairing invalid texture projection on line 418 ("wall10" near -304 881 -29)
WARNING: repairing invalid texture projection on line 419 ("wall10" near -304 673 -84)
WARNING: repairing invalid texture projection on line 420 ("wall10" near -304 673 -84)
WARNING: repairing invalid texture projection on line 421 ("wall10" near -240 673 -66)
WARNING: repairing invalid texture projection on line 422 ("wall10" near -240 817 -84)
WARNING: repairing invalid texture projection on line 423 ("wall10" near -240 817 -84)
WARNING: repairing invalid texture projection on line 427 ("wall10" near -496 689 -84)
WARNING: repairing invalid texture projection on line 428 ("wall10" near -323 881 -29)
WARNING: repairing invalid texture projection on line 429 ("wall10" near -496 673 -84)
WARNING: repairing invalid texture projection on line 430 ("wall10" near -323 881 -84)
WARNING: repairing invalid texture projection on line 431 ("wall10" near -496 673 -29)
WARNING: repairing invalid texture projection on line 432 ("wall10" near -304 881 -29)
WARNING: repairing invalid texture projection on line 433 ("wall10" near -304 881 -84)
WARNING: repairing invalid texture projection on line 437 ("csl_brk14b" near -496 673 -29)
WARNING: repairing invalid texture projection on line 438 ("csl_brk14b" near -496 689 63)
WARNING: repairing invalid texture projection on line 439 ("csl_brk14b" near -320 881 -29)
WARNING: repairing invalid texture projection on line 440 ("csl_brk14b" near -304 881 63)
WARNING: repairing invalid texture projection on line 441 ("csl_brk14b" near -304 881 -29)
WARNING: repairing invalid texture projection on line 442 ("csl_brk14b" near -304 881 -29)
WARNING: repairing invalid texture projection on line 446 ("csl_brk14b" near -960 689 63)
WARNING: repairing invalid texture projection on line 447 ("csl_brk14b" near -496 673 63)
WARNING: repairing invalid texture projection on line 448 ("csl_brk14b" near -960 673 -66)
WARNING: repairing invalid texture projection on line 449 ("csl_brk14b" near -496 689 63)
WARNING: repairing invalid texture projection on line 450 ("csl_brk14b" near -496 689 -66)
WARNING: repairing invalid texture projection on line 451 ("csl_brk14b" near -496 689 -66)
WARNING: repairing invalid texture projection on line 455 ("sq_flat5_0b" near -496 673 63)
WARNING: repairing invalid texture projection on line 456 ("sq_flat5_0b" near -304 881 63)
WARNING: repairing invalid texture projection on line 457 ("sq_flat5_0b" near -304 673 95)
WARNING: repairing invalid texture projection on line 458 ("sq_flat5_0b" near -304 673 63)
WARNING: repairing invalid texture projection on line 459 ("sq_flat5_0b" near -408 777 95)
WARNING: repairing invalid texture projection on line 460 ("sq_flat5_0b" near -304 673 95)
WARNING: repairing invalid texture projection on line 464 ("sq_flat5_0b" near 304 673 95)
WARNING: repairing invalid texture projection on line 465 ("sq_flat5_0b" near 496 673 63)
WARNING: repairing invalid texture projection on line 466 ("sq_flat5_0b" near 304 881 63)
WARNING: repairing invalid texture projection on line 467 ("sq_flat5_0b" near 408 777 95)
WARNING: repairing invalid texture projection on line 468 ("sq_flat5_0b" near 408 777 63)
WARNING: repairing invalid texture projection on line 469 ("sq_flat5_0b" near 408 777 63)
WARNING: repairing invalid texture projection on line 473 ("sq_flat5_0b" near 256 273 99)
WARNING: repairing invalid texture projection on line 474 ("sq_flat5_0b" near 256 337 81)
WARNING: repairing invalid texture projection on line 475 ("sq_flat5_0b" near 304 273 63)
WARNING: repairing invalid texture projection on line 476 ("sq_flat5_0b" near 304 337 81)
WARNING: repairing invalid texture projection on line 477 ("sq_flat5_0b" near 304 273 81)
WARNING: repairing invalid texture projection on line 478 ("sq_flat5_0b" near 304 273 63)
WARNING: repairing invalid texture projection on line 482 ("sq_flat5_0b" near 192 273 122)
WARNING: repairing invalid texture projection on line 483 ("sq_flat5_0b" near 192 337 104)
WARNING: repairing invalid texture projection on line 484 ("sq_flat5_0b" near 256 273 81)
WARNING: repairing invalid texture projection on line 485 ("sq_flat5_0b" near 256 337 99)
WARNING: repairing invalid texture projection on line 486 ("sq_flat5_0b" near 256 273 99)
WARNING: repairing invalid texture projection on line 487 ("sq_flat5_0b" near 256 273 81)
WARNING: repairing invalid texture projection on line 491 ("sq_flat5_0b" near 128 273 136)
WARNING: repairing invalid texture projection on line 492 ("sq_flat5_0b" near 128 337 118)
WARNING: repairing invalid texture projection on line 493 ("sq_flat5_0b" near 192 273 104)
WARNING: repairing invalid texture projection on line 494 ("sq_flat5_0b" near 192 337 122)
WARNING: repairing invalid texture projection on line 495 ("sq_flat5_0b" near 192 273 122)
WARNING: repairing invalid texture projection on line 496 ("sq_flat5_0b" near 192 273 104)
WARNING: repairing invalid texture projection on line 500 ("sq_flat5_0b" near 64 208 145)
WARNING: repairing invalid texture projection on line 501 ("sq_flat5_0b" near 64 337 127)
WARNING: repairing invalid texture projection on line 502 ("sq_flat5_0b" near 128 208 118)
WARNING: repairing invalid texture projection on line 503 ("sq_flat5_0b" near 128 337 136)
WARNING: repairing invalid texture projection on line 504 ("sq_flat5_0b" near 128 208 136)
WARNING: repairing invalid texture projection on line 505 ("sq_flat5_0b" near 128 208 118)
WARNING: repairing invalid texture projection on line 509 ("sq_flat5_0b" near 0 208 150)
WARNING: repairing invalid texture projection on line 510 ("sq_flat5_0b" near 64 208 127)
WARNING: repairing invalid texture projection on line 511 ("sq_flat5_0b" near 64 208 145)
WARNING: repairing invalid texture projection on line 512 ("sq_flat5_0b" near 0 337 131)
WARNING: repairing invalid texture projection on line 513 ("sq_flat5_0b" near 64 337 145)
WARNING: repairing invalid texture projection on line 514 ("sq_flat5_0b" near 64 337 145)
WARNING: repairing invalid texture projection on line 518 ("sq_flat5_0b" near -64 337 127)
WARNING: repairing invalid texture projection on line 519 ("sq_flat5_0b" near 0 337 150)
WARNING: repairing invalid texture projection on line 520 ("sq_flat5_0b" near -64 208 145)
WARNING: repairing invalid texture projection on line 521 ("sq_flat5_0b" near 0 337 131)
WARNING: repairing invalid texture projection on line 522 ("sq_flat5_0b" near 0 208 131)
WARNING: repairing invalid texture projection on line 523 ("sq_flat5_0b" near 0 208 131)
WARNING: repairing invalid texture projection on line 527 ("sq_flat5_0b" near -128 337 118)
WARNING: repairing invalid texture projection on line 528 ("sq_flat5_0b" near -64 337 145)
WARNING: repairing invalid texture projection on line 529 ("sq_flat5_0b" near -128 208 136)
WARNING: repairing invalid texture projection on line 530 ("sq_flat5_0b" near -64 337 127)
WARNING: repairing invalid texture projection on line 531 ("sq_flat5_0b" near -64 208 127)
WARNING: repairing invalid texture projection on line 532 ("sq_flat5_0b" near -64 208 127)
WARNING: repairing invalid texture projection on line 536 ("sq_flat5_0b" near -192 337 104)
WARNING: repairing invalid texture projection on line 537 ("sq_flat5_0b" near -128 337 136)
WARNING: repairing invalid texture projection on line 538 ("sq_flat5_0b" near -192 273 122)
WARNING: repairing invalid texture projection on line 539 ("sq_flat5_0b" near -128 337 118)
WARNING: repairing invalid texture projection on line 540 ("sq_flat5_0b" near -128 273 118)
WARNING: repairing invalid texture projection on line 541 ("sq_flat5_0b" near -128 273 118)
WARNING: repairing invalid texture projection on line 545 ("sq_flat5_0b" near -256 337 81)
WARNING: repairing invalid texture projection on line 546 ("sq_flat5_0b" near -192 337 122)
WARNING: repairing invalid texture projection on line 547 ("sq_flat5_0b" near -256 273 99)
WARNING: repairing invalid texture projection on line 548 ("sq_flat5_0b" near -192 337 104)
WARNING: repairing invalid texture projection on line 549 ("sq_flat5_0b" near -192 273 104)
WARNING: repairing invalid texture projection on line 550 ("sq_flat5_0b" near -192 273 104)
WARNING: repairing invalid texture projection on line 554 ("sq_flat5_0b" near -304 337 63)
WARNING: repairing invalid texture projection on line 555 ("sq_flat5_0b" near -256 337 99)
WARNING: repairing invalid texture projection on line 556 ("sq_flat5_0b" near -304 273 81)
WARNING: repairing invalid texture projection on line 557 ("sq_flat5_0b" near -256 337 81)
WARNING: repairing invalid texture projection on line 558 ("sq_flat5_0b" near -256 273 81)
WARNING: repairing invalid texture projection on line 559 ("sq_flat5_0b" near -256 273 81)
WARNING: repairing invalid texture projection on line 563 ("sq_flat5_0b" near 256 817 99)
WARNING: repairing invalid texture projection on line 564 ("sq_flat5_0b" near 256 881 81)
WARNING: repairing invalid texture projection on line 565 ("sq_flat5_0b" near 304 817 63)
WARNING: repairing invalid texture projection on line 566 ("sq_flat5_0b" near 304 881 81)
WARNING: repairing invalid texture projection on line 567 ("sq_flat5_0b" near 304 817 81)
WARNING: repairing invalid texture projection on line 568 ("sq_flat5_0b" near 304 817 63)
WARNING: repairing invalid texture projection on line 572 ("sq_flat5_0b" near 192 817 122)
WARNING: repairing invalid texture projection on line 573 ("sq_flat5_0b" near 192 881 104)
WARNING: repairing invalid texture projection on line 574 ("sq_flat5_0b" near 256 817 81)
WARNING: repairing invalid texture projection on line 575 ("sq_flat5_0b" near 256 881 99)
WARNING: repairing invalid texture projection on line 576 ("sq_flat5_0b" near 256 817 99)
WARNING: repairing invalid texture projection on line 577 ("sq_flat5_0b" near 256 817 81)
WARNING: repairing invalid texture projection on line 581 ("sq_flat5_0b" near 128 817 136)
WARNING: repairing invalid texture projection on line 582 ("sq_flat5_0b" near 128 881 118)
WARNING: repairing invalid texture projection on line 583 ("sq_flat5_0b" near 192 817 104)
WARNING: repairing invalid texture projection on line 584 ("sq_flat5_0b" near 192 881 122)
WARNING: repairing invalid texture projection on line 585 ("sq_flat5_0b" near 192 817 122)
WARNING: repairing invalid texture projection on line 586 ("sq_flat5_0b" near 192 817 104)
WARNING: repairing invalid texture projection on line 590 ("sq_flat5_0b" near 64 817 145)
WARNING: repairing invalid texture projection on line 591 ("sq_flat5_0b" near 64 881 127)
WARNING: repairing invalid texture projection on line 592 ("sq_flat5_0b" near 128 817 118)
WARNING: repairing invalid texture projection on line 593 ("sq_flat5_0b" near 128 881 136)
WARNING: repairing invalid texture projection on line 594 ("sq_flat5_0b" near 128 817 136)
WARNING: repairing invalid texture projection on line 595 ("sq_flat5_0b" near 128 817 118)
WARNING: repairing invalid texture projection on line 599 ("sq_flat5_0b" near 0 817 150)
WARNING: repairing invalid texture projection on line 600 ("sq_flat5_0b" near 64 817 127)
WARNING: repairing invalid texture projection on line 601 ("sq_flat5_0b" near 64 817 145)
WARNING: repairing invalid texture projection on line 602 ("sq_flat5_0b" near 0 881 131)
WARNING: repairing invalid texture projection on line 603 ("sq_flat5_0b" near 64 881 145)
WARNING: repairing invalid texture projection on line 604 ("sq_flat5_0b" near 64 881 145)
WARNING: repairing invalid texture projection on line 608 ("sq_flat5_0b" near -64 881 127)
WARNING: repairing invalid texture projection on line 609 ("sq_flat5_0b" near 0 881 150)
WARNING: repairing invalid texture projection on line 610 ("sq_flat5_0b" near -64 817 145)
WARNING: repairing invalid texture projection on line 611 ("sq_flat5_0b" near 0 881 131)
WARNING: repairing invalid texture projection on line 612 ("sq_flat5_0b" near 0 817 131)
WARNING: repairing invalid texture projection on line 613 ("sq_flat5_0b" near 0 817 131)
WARNING: repairing invalid texture projection on line 617 ("sq_flat5_0b" near -128 881 118)
WARNING: repairing invalid texture projection on line 618 ("sq_flat5_0b" near -64 881 145)
WARNING: repairing invalid texture projection on line 619 ("sq_flat5_0b" near -128 817 136)
WARNING: repairing invalid texture projection on line 620 ("sq_flat5_0b" near -64 881 127)
WARNING: repairing invalid texture projection on line 621 ("sq_flat5_0b" near -64 817 127)
WARNING: repairing invalid texture projection on line 622 ("sq_flat5_0b" near -64 817 127)
WARNING: repairing invalid texture projection on line 626 ("sq_flat5_0b" near -192 881 104)
WARNING: repairing invalid texture projection on line 627 ("sq_flat5_0b" near -128 881 136)
WARNING: repairing invalid texture projection on line 628 ("sq_flat5_0b" near -192 817 122)
WARNING: repairing invalid texture projection on line 629 ("sq_flat5_0b" near -128 881 118)
WARNING: repairing invalid texture projection on line 630 ("sq_flat5_0b" near -128 817 118)
WARNING: repairing invalid texture projection on line 631 ("sq_flat5_0b" near -128 817 118)
WARNING: repairing invalid texture projection on line 635 ("sq_flat5_0b" near -256 881 81)
WARNING: repairing invalid texture projection on line 636 ("sq_flat5_0b" near -192 881 122)
WARNING: repairing invalid texture projection on line 637 ("sq_flat5_0b" near -256 817 99)
WARNING: repairing invalid texture projection on line 638 ("sq_flat5_0b" near -192 881 104)
WARNING: repairing invalid texture projection on line 639 ("sq_flat5_0b" near -192 817 104)
WARNING: repairing invalid texture projection on line 640 ("sq_flat5_0b" near -192 817 104)
WARNING: repairing invalid texture projection on line 644 ("sq_flat5_0b" near -304 881 63)
WARNING: repairing invalid texture projection on line 645 ("sq_flat5_0b" near -256 881 99)
WARNING: repairing invalid texture projection on line 646 ("sq_flat5_0b" near -304 817 81)
WARNING: repairing invalid texture projection on line 647 ("sq_flat5_0b" near -256 881 81)
WARNING: repairing invalid texture projection on line 648 ("sq_flat5_0b" near -256 817 81)
WARNING: repairing invalid texture projection on line 649 ("sq_flat5_0b" near -256 817 81)
WARNING: repairing invalid texture projection on line 653 ("sq_flat5_0b" near -304 337 63)
WARNING: repairing invalid texture projection on line 654 ("sq_flat5_0b" near -304 417 99)
WARNING: repairing invalid texture projection on line 655 ("sq_flat5_0b" near -256 417 118)
WARNING: repairing invalid texture projection on line 656 ("sq_flat5_0b" near -256 337 99)
WARNING: repairing invalid texture projection on line 657 ("sq_flat5_0b" near -304 417 99)
WARNING: repairing invalid texture projection on line 658 ("sq_flat5_0b" near -256 417 99)
WARNING: repairing invalid texture projection on line 659 ("sq_flat5_0b" near -256 417 118)
WARNING: repairing invalid texture projection on line 663 ("sq_flat5_0b" near -256 337 81)
WARNING: repairing invalid texture projection on line 664 ("sq_flat5_0b" near -256 337 99)
WARNING: repairing invalid texture projection on line 665 ("sq_flat5_0b" near -256 417 118)
WARNING: repairing invalid texture projection on line 666 ("sq_flat5_0b" near -192 337 122)
WARNING: repairing invalid texture projection on line 667 ("sq_flat5_0b" near -256 417 118)
WARNING: repairing invalid texture projection on line 668 ("sq_flat5_0b" near -192 417 122)
WARNING: repairing invalid texture projection on line 669 ("sq_flat5_0b" near -192 337 122)
WARNING: repairing invalid texture projection on line 673 ("sq_flat5_0b" near -192 417 122)
WARNING: repairing invalid texture projection on line 674 ("sq_flat5_0b" near -128 417 154)
WARNING: repairing invalid texture projection on line 675 ("sq_flat5_0b" near -192 337 122)
WARNING: repairing invalid texture projection on line 676 ("sq_flat5_0b" near -128 417 136)
WARNING: repairing invalid texture projection on line 677 ("sq_flat5_0b" near -128 337 118)
WARNING: repairing invalid texture projection on line 678 ("sq_flat5_0b" near -128 337 118)
WARNING: repairing invalid texture projection on line 682 ("sq_flat5_0b" near -128 417 136)
WARNING: repairing invalid texture projection on line 683 ("sq_flat5_0b" near -64 417 163)
WARNING: repairing invalid texture projection on line 684 ("sq_flat5_0b" near -128 337 136)
WARNING: repairing invalid texture projection on line 685 ("sq_flat5_0b" near -64 417 145)
WARNING: repairing invalid texture projection on line 686 ("sq_flat5_0b" near -64 337 127)
WARNING: repairing invalid texture projection on line 687 ("sq_flat5_0b" near -64 337 127)
WARNING: repairing invalid texture projection on line 691 ("sq_flat5_0b" near -64 417 145)
WARNING: repairing invalid texture projection on line 692 ("sq_flat5_0b" near -64 337 145)
WARNING: repairing invalid texture projection on line 693 ("sq_flat5_0b" near 0 337 131)
WARNING: repairing invalid texture projection on line 694 ("sq_flat5_0b" near 0 417 168)
WARNING: repairing invalid texture projection on line 695 ("sq_flat5_0b" near 0 337 131)
WARNING: repairing invalid texture projection on line 696 ("sq_flat5_0b" near 0 417 150)
WARNING: repairing invalid texture projection on line 697 ("sq_flat5_0b" near 0 417 168)
WARNING: repairing invalid texture projection on line 701 ("sq_flat5_0b" near 0 337 150)
WARNING: repairing invalid texture projection on line 702 ("sq_flat5_0b" near 0 417 150)
WARNING: repairing invalid texture projection on line 703 ("sq_flat5_0b" near 64 417 145)
WARNING: repairing invalid texture projection on line 704 ("sq_flat5_0b" near 64 337 127)
WARNING: repairing invalid texture projection on line 705 ("sq_flat5_0b" near 64 417 145)
WARNING: repairing invalid texture projection on line 706 ("sq_flat5_0b" near 64 417 163)
WARNING: repairing invalid texture projection on line 707 ("sq_flat5_0b" near 64 417 145)
WARNING: repairing invalid texture projection on line 711 ("sq_flat5_0b" near 64 337 145)
WARNING: repairing invalid texture projection on line 712 ("sq_flat5_0b" near 64 417 145)
WARNING: repairing invalid texture projection on line 713 ("sq_flat5_0b" near 128 337 118)
WARNING: repairing invalid texture projection on line 714 ("sq_flat5_0b" near 128 417 154)
WARNING: repairing invalid texture projection on line 715 ("sq_flat5_0b" near 128 337 136)
WARNING: repairing invalid texture projection on line 716 ("sq_flat5_0b" near 128 337 118)
WARNING: repairing invalid texture projection on line 720 ("sq_flat5_0b" near 128 337 136)
WARNING: repairing invalid texture projection on line 721 ("sq_flat5_0b" near 128 417 136)
WARNING: repairing invalid texture projection on line 722 ("sq_flat5_0b" near 192 337 104)
WARNING: repairing invalid texture projection on line 723 ("sq_flat5_0b" near 192 417 140)
WARNING: repairing invalid texture projection on line 724 ("sq_flat5_0b" near 192 337 122)
WARNING: repairing invalid texture projection on line 725 ("sq_flat5_0b" near 192 337 104)
WARNING: repairing invalid texture projection on line 729 ("sq_flat5_0b" near 192 337 104)
WARNING: repairing invalid texture projection on line 730 ("sq_flat5_0b" near 256 417 99)
WARNING: repairing invalid texture projection on line 731 ("sq_flat5_0b" near 256 337 81)
WARNING: repairing invalid texture projection on line 732 ("sq_flat5_0b" near 256 417 99)
WARNING: repairing invalid texture projection on line 733 ("sq_flat5_0b" near 192 417 140)
WARNING: repairing invalid texture projection on line 734 ("sq_flat5_0b" near 192 337 122)
WARNING: repairing invalid texture projection on line 735 ("sq_flat5_0b" near 256 337 99)
WARNING: repairing invalid texture projection on line 739 ("sq_flat5_0b" near 256 337 81)
WARNING: repairing invalid texture projection on line 740 ("sq_flat5_0b" near 304 417 81)
WARNING: repairing invalid texture projection on line 741 ("sq_flat5_0b" near 304 337 81)
WARNING: repairing invalid texture projection on line 742 ("sq_flat5_0b" near 256 417 118)
WARNING: repairing invalid texture projection on line 743 ("sq_flat5_0b" near 256 417 118)
WARNING: repairing invalid texture projection on line 744 ("sq_flat5_0b" near 256 417 118)
WARNING: repairing invalid texture projection on line 745 ("sq_flat5_0b" near 304 417 99)
WARNING: repairing invalid texture projection on line 749 ("sq_flat5_0b" near -304 737 81)
WARNING: repairing invalid texture projection on line 750 ("sq_flat5_0b" near -304 737 99)
WARNING: repairing invalid texture projection on line 751 ("sq_flat5_0b" near -304 817 81)
WARNING: repairing invalid texture projection on line 752 ("sq_flat5_0b" near -256 737 118)
WARNING: repairing invalid texture projection on line 753 ("sq_flat5_0b" near -304 817 81)
WARNING: repairing invalid texture projection on line 754 ("sq_flat5_0b" near -256 817 81)
WARNING: repairing invalid texture projection on line 755 ("sq_flat5_0b" near -256 737 118)
WARNING: repairing invalid texture projection on line 759 ("sq_flat5_0b" near -256 737 99)
WARNING: repairing invalid texture projection on line 760 ("sq_flat5_0b" near -256 817 99)
WARNING: repairing invalid texture projection on line 761 ("sq_flat5_0b" near -192 817 122)
WARNING: repairing invalid texture projection on line 762 ("sq_flat5_0b" near -192 737 140)
WARNING: repairing invalid texture projection on line 763 ("sq_flat5_0b" near -256 817 99)
WARNING: repairing invalid texture projection on line 764 ("sq_flat5_0b" near -192 817 104)
WARNING: repairing invalid texture projection on line 765 ("sq_flat5_0b" near -192 817 122)
WARNING: repairing invalid texture projection on line 769 ("sq_flat5_0b" near -192 817 104)
WARNING: repairing invalid texture projection on line 770 ("sq_flat5_0b" near -128 817 136)
WARNING: repairing invalid texture projection on line 771 ("sq_flat5_0b" near -192 737 140)
WARNING: repairing invalid texture projection on line 772 ("sq_flat5_0b" near -128 817 118)
WARNING: repairing invalid texture projection on line 773 ("sq_flat5_0b" near -128 737 136)
WARNING: repairing invalid texture projection on line 774 ("sq_flat5_0b" near -128 737 136)
WARNING: repairing invalid texture projection on line 778 ("sq_flat5_0b" near -128 817 118)
WARNING: repairing invalid texture projection on line 779 ("sq_flat5_0b" near -64 817 145)
WARNING: repairing invalid texture projection on line 780 ("sq_flat5_0b" near -128 737 154)
WARNING: repairing invalid texture projection on line 781 ("sq_flat5_0b" near -64 817 127)
WARNING: repairing invalid texture projection on line 782 ("sq_flat5_0b" near -64 737 145)
WARNING: repairing invalid texture projection on line 783 ("sq_flat5_0b" near -64 737 145)
WARNING: repairing invalid texture projection on line 787 ("sq_flat5_0b" near -64 817 145)
WARNING: repairing invalid texture projection on line 788 ("sq_flat5_0b" near 0 737 168)
WARNING: repairing invalid texture projection on line 789 ("sq_flat5_0b" near -64 737 145)
WARNING: repairing invalid texture projection on line 790 ("sq_flat5_0b" near -64 817 127)
WARNING: repairing invalid texture projection on line 791 ("sq_flat5_0b" near -64 737 145)
WARNING: repairing invalid texture projection on line 792 ("sq_flat5_0b" near 0 737 150)
WARNING: repairing invalid texture projection on line 793 ("sq_flat5_0b" near 0 817 150)
WARNING: repairing invalid texture projection on line 797 ("sq_flat5_0b" near 0 817 150)
WARNING: repairing invalid texture projection on line 798 ("sq_flat5_0b" near 64 737 145)
WARNING: repairing invalid texture projection on line 799 ("sq_flat5_0b" near 64 817 127)
WARNING: repairing invalid texture projection on line 800 ("sq_flat5_0b" near 0 737 150)
WARNING: repairing invalid texture projection on line 801 ("sq_flat5_0b" near 64 817 145)
WARNING: repairing invalid texture projection on line 802 ("sq_flat5_0b" near 64 737 163)
WARNING: repairing invalid texture projection on line 803 ("sq_flat5_0b" near 64 817 145)
WARNING: repairing invalid texture projection on line 807 ("sq_flat5_0b" near 64 737 163)
WARNING: repairing invalid texture projection on line 808 ("sq_flat5_0b" near 64 817 127)
WARNING: repairing invalid texture projection on line 809 ("sq_flat5_0b" near 128 737 136)
WARNING: repairing invalid texture projection on line 810 ("sq_flat5_0b" near 128 817 136)
WARNING: repairing invalid texture projection on line 811 ("sq_flat5_0b" near 128 737 154)
WARNING: repairing invalid texture projection on line 812 ("sq_flat5_0b" near 128 737 136)
WARNING: repairing invalid texture projection on line 816 ("sq_flat5_0b" near 128 737 154)
WARNING: repairing invalid texture projection on line 817 ("sq_flat5_0b" near 128 817 118)
WARNING: repairing invalid texture projection on line 818 ("sq_flat5_0b" near 192 737 122)
WARNING: repairing invalid texture projection on line 819 ("sq_flat5_0b" near 192 817 122)
WARNING: repairing invalid texture projection on line 820 ("sq_flat5_0b" near 192 737 140)
WARNING: repairing invalid texture projection on line 821 ("sq_flat5_0b" near 192 737 122)
WARNING: repairing invalid texture projection on line 825 ("sq_flat5_0b" near 192 737 122)
WARNING: repairing invalid texture projection on line 826 ("sq_flat5_0b" near 256 817 81)
WARNING: repairing invalid texture projection on line 827 ("sq_flat5_0b" near 192 737 140)
WARNING: repairing invalid texture projection on line 828 ("sq_flat5_0b" near 192 817 122)
WARNING: repairing invalid texture projection on line 829 ("sq_flat5_0b" near 192 817 122)
WARNING: repairing invalid texture projection on line 830 ("sq_flat5_0b" near 256 817 99)
WARNING: repairing invalid texture projection on line 831 ("sq_flat5_0b" near 256 737 99)
WARNING: repairing invalid texture projection on line 835 ("sq_flat5_0b" near 256 737 99)
WARNING: repairing invalid texture projection on line 836 ("sq_flat5_0b" near 304 817 63)
WARNING: repairing invalid texture projection on line 837 ("sq_flat5_0b" near 304 737 81)
WARNING: repairing invalid texture projection on line 838 ("sq_flat5_0b" near 256 817 99)
WARNING: repairing invalid texture projection on line 839 ("sq_flat5_0b" near 256 817 99)
WARNING: repairing invalid texture projection on line 840 ("sq_flat5_0b" near 304 817 81)
WARNING: repairing invalid texture projection on line 841 ("sq_flat5_0b" near 304 817 81)
WARNING: repairing invalid texture projection on line 845 ("sq_flat5_0b" near -304 513 99)
WARNING: repairing invalid texture projection on line 846 ("sq_flat5_0b" near -304 417 99)
WARNING: repairing invalid texture projection on line 847 ("sq_flat5_0b" near -256 417 118)
WARNING: repairing invalid texture projection on line 848 ("sq_flat5_0b" near -304 417 81)
WARNING: repairing invalid texture projection on line 849 ("sq_flat5_0b" near -256 513 136)
WARNING: repairing invalid texture projection on line 850 ("sq_flat5_0b" near -304 513 99)
WARNING: repairing invalid texture projection on line 851 ("sq_flat5_0b" near -304 513 99)
WARNING: repairing invalid texture projection on line 852 ("sq_flat5_0b" near -256 417 99)
WARNING: repairing invalid texture projection on line 856 ("sq_flat5_0b" near -256 513 118)
WARNING: repairing invalid texture projection on line 857 ("sq_flat5_0b" near -256 513 136)
WARNING: repairing invalid texture projection on line 858 ("sq_flat5_0b" near -256 417 118)
WARNING: repairing invalid texture projection on line 859 ("sq_flat5_0b" near -256 417 99)
WARNING: repairing invalid texture projection on line 860 ("sq_flat5_0b" near -256 513 118)
WARNING: repairing invalid texture projection on line 861 ("sq_flat5_0b" near -256 417 99)
WARNING: repairing invalid texture projection on line 862 ("sq_flat5_0b" near -192 417 122)
WARNING: repairing invalid texture projection on line 863 ("sq_flat5_0b" near -192 513 159)
WARNING: repairing invalid texture projection on line 867 ("sq_flat5_0b" near 192 513 159)
WARNING: repairing invalid texture projection on line 868 ("sq_flat5_0b" near 256 417 99)
WARNING: repairing invalid texture projection on line 869 ("sq_flat5_0b" near 256 513 118)
WARNING: repairing invalid texture projection on line 870 ("sq_flat5_0b" near 192 417 140)
WARNING: repairing invalid texture projection on line 871 ("sq_flat5_0b" near 256 513 136)
WARNING: repairing invalid texture projection on line 872 ("sq_flat5_0b" near 192 513 159)
WARNING: repairing invalid texture projection on line 873 ("sq_flat5_0b" near 256 513 136)
WARNING: repairing invalid texture projection on line 874 ("sq_flat5_0b" near 256 417 99)
WARNING: repairing invalid texture projection on line 878 ("sq_flat5_0b" near 256 513 136)
WARNING: repairing invalid texture projection on line 879 ("sq_flat5_0b" near 256 513 118)
WARNING: repairing invalid texture projection on line 880 ("sq_flat5_0b" near 304 513 99)
WARNING: repairing invalid texture projection on line 881 ("sq_flat5_0b" near 256 417 99)
WARNING: repairing invalid texture projection on line 882 ("sq_flat5_0b" near 304 513 118)
WARNING: repairing invalid texture projection on line 883 ("sq_flat5_0b" near 304 513 118)
WARNING: repairing invalid texture projection on line 884 ("sq_flat5_0b" near 304 417 99)
WARNING: repairing invalid texture projection on line 885 ("sq_flat5_0b" near 304 417 99)
WARNING: repairing invalid texture projection on line 889 ("sq_flat5_0b" near -304 737 81)
WARNING: repairing invalid texture projection on line 890 ("sq_flat5_0b" near -304 737 99)
WARNING: repairing invalid texture projection on line 891 ("sq_flat5_0b" near -304 641 118)
WARNING: repairing invalid texture projection on line 892 ("sq_flat5_0b" near -304 641 99)
WARNING: repairing invalid texture projection on line 893 ("sq_flat5_0b" near -304 737 81)
WARNING: repairing invalid texture projection on line 894 ("sq_flat5_0b" near -304 641 99)
WARNING: repairing invalid texture projection on line 895 ("sq_flat5_0b" near -256 641 118)
WARNING: repairing invalid texture projection on line 896 ("sq_flat5_0b" near -256 737 118)
WARNING: repairing invalid texture projection on line 900 ("sq_flat5_0b" near -256 737 99)
WARNING: repairing invalid texture projection on line 901 ("sq_flat5_0b" near -256 641 136)
WARNING: repairing invalid texture projection on line 902 ("sq_flat5_0b" near -192 641 159)
WARNING: repairing invalid texture projection on line 903 ("sq_flat5_0b" near -256 641 118)
WARNING: repairing invalid texture projection on line 904 ("sq_flat5_0b" near -192 737 140)
WARNING: repairing invalid texture projection on line 905 ("sq_flat5_0b" near -256 737 99)
WARNING: repairing invalid texture projection on line 906 ("sq_flat5_0b" near -256 737 99)
WARNING: repairing invalid texture projection on line 907 ("sq_flat5_0b" near -192 641 140)
WARNING: repairing invalid texture projection on line 911 ("sq_flat5_0b" near 192 737 140)
WARNING: repairing invalid texture projection on line 912 ("sq_flat5_0b" near 192 737 122)
WARNING: repairing invalid texture projection on line 913 ("sq_flat5_0b" near 256 737 99)
WARNING: repairing invalid texture projection on line 914 ("sq_flat5_0b" near 192 641 140)
WARNING: repairing invalid texture projection on line 915 ("sq_flat5_0b" near 256 737 118)
WARNING: repairing invalid texture projection on line 916 ("sq_flat5_0b" near 256 737 118)
WARNING: repairing invalid texture projection on line 917 ("sq_flat5_0b" near 256 641 136)
WARNING: repairing invalid texture projection on line 918 ("sq_flat5_0b" near 256 641 136)
WARNING: repairing invalid texture projection on line 922 ("sq_flat5_0b" near 256 737 118)
WARNING: repairing invalid texture projection on line 923 ("sq_flat5_0b" near 304 641 99)
WARNING: repairing invalid texture projection on line 924 ("sq_flat5_0b" near 304 737 81)
WARNING: repairing invalid texture projection on line 925 ("sq_flat5_0b" near 256 641 136)
WARNING: repairing invalid texture projection on line 926 ("sq_flat5_0b" near 304 737 99)
WARNING: repairing invalid texture projection on line 927 ("sq_flat5_0b" near 256 737 118)
WARNING: repairing invalid texture projection on line 928 ("sq_flat5_0b" near 304 737 99)
WARNING: repairing invalid texture projection on line 929 ("sq_flat5_0b" near 304 641 99)
WARNING: repairing invalid texture projection on line 933 ("sq_flat5_0b" near 256 513 136)
WARNING: repairing invalid texture projection on line 934 ("sq_flat5_0b" near 256 513 118)
WARNING: repairing invalid texture projection on line 935 ("sq_flat5_0b" near 256 577 122)
WARNING: repairing invalid texture projection on line 936 ("sq_flat5_0b" near 304 513 118)
WARNING: repairing invalid texture projection on line 937 ("sq_flat5_0b" near 304 577 104)
WARNING: repairing invalid texture projection on line 938 ("sq_flat5_0b" near 256 577 140)
WARNING: repairing invalid texture projection on line 939 ("sq_flat5_0b" near 304 577 104)
WARNING: repairing invalid texture projection on line 943 ("sq_flat5_0b" near 192 513 159)
WARNING: repairing invalid texture projection on line 944 ("sq_flat5_0b" near 192 577 145)
WARNING: repairing invalid texture projection on line 945 ("sq_flat5_0b" near 256 577 122)
WARNING: repairing invalid texture projection on line 946 ("sq_flat5_0b" near 256 513 118)
WARNING: repairing invalid texture projection on line 947 ("sq_flat5_0b" near 256 577 122)
WARNING: repairing invalid texture projection on line 948 ("sq_flat5_0b" near 256 577 140)
WARNING: repairing invalid texture projection on line 949 ("sq_flat5_0b" near 256 577 122)
WARNING: repairing invalid texture projection on line 953 ("sq_flat5_0b" near -256 577 122)
WARNING: repairing invalid texture projection on line 954 ("sq_flat5_0b" near -256 513 136)
WARNING: repairing invalid texture projection on line 955 ("sq_flat5_0b" near -192 513 140)
WARNING: repairing invalid texture projection on line 956 ("sq_flat5_0b" near -192 577 163)
WARNING: repairing invalid texture projection on line 957 ("sq_flat5_0b" near -192 513 140)
WARNING: repairing invalid texture projection on line 958 ("sq_flat5_0b" near -192 577 145)
WARNING: repairing invalid texture projection on line 959 ("sq_flat5_0b" near -192 577 163)
WARNING: repairing invalid texture projection on line 963 ("sq_flat5_0b" near -304 577 122)
WARNING: repairing invalid texture projection on line 964 ("sq_flat5_0b" near -256 513 136)
WARNING: repairing invalid texture projection on line 965 ("sq_flat5_0b" near -304 513 99)
WARNING: repairing invalid texture projection on line 966 ("sq_flat5_0b" near -304 577 104)
WARNING: repairing invalid texture projection on line 967 ("sq_flat5_0b" near -304 513 99)
WARNING: repairing invalid texture projection on line 968 ("sq_flat5_0b" near -256 513 118)
WARNING: repairing invalid texture projection on line 969 ("sq_flat5_0b" near -256 577 140)
WARNING: repairing invalid texture projection on line 973 ("sq_flat5_0b" near 256 641 136)
WARNING: repairing invalid texture projection on line 974 ("sq_flat5_0b" near 256 577 122)
WARNING: repairing invalid texture projection on line 975 ("sq_flat5_0b" near 256 577 122)
WARNING: repairing invalid texture projection on line 976 ("sq_flat5_0b" near 304 577 122)
WARNING: repairing invalid texture projection on line 977 ("sq_flat5_0b" near 304 641 99)
WARNING: repairing invalid texture projection on line 978 ("sq_flat5_0b" near 256 641 136)
WARNING: repairing invalid texture projection on line 979 ("sq_flat5_0b" near 304 577 122)
WARNING: repairing invalid texture projection on line 983 ("sq_flat5_0b" near 192 641 159)
WARNING: repairing invalid texture projection on line 984 ("sq_flat5_0b" near 192 577 145)
WARNING: repairing invalid texture projection on line 985 ("sq_flat5_0b" near 192 641 140)
WARNING: repairing invalid texture projection on line 986 ("sq_flat5_0b" near 192 577 145)
WARNING: repairing invalid texture projection on line 987 ("sq_flat5_0b" near 256 641 136)
WARNING: repairing invalid texture projection on line 988 ("sq_flat5_0b" near 256 577 140)
WARNING: repairing invalid texture projection on line 989 ("sq_flat5_0b" near 256 641 118)
WARNING: repairing invalid texture projection on line 993 ("sq_flat5_0b" near -256 641 136)
WARNING: repairing invalid texture projection on line 994 ("sq_flat5_0b" near -192 577 163)
WARNING: repairing invalid texture projection on line 995 ("sq_flat5_0b" near -256 577 122)
WARNING: repairing invalid texture projection on line 996 ("sq_flat5_0b" near -256 641 118)
WARNING: repairing invalid texture projection on line 997 ("sq_flat5_0b" near -256 577 122)
WARNING: repairing invalid texture projection on line 998 ("sq_flat5_0b" near -192 577 145)
WARNING: repairing invalid texture projection on line 999 ("sq_flat5_0b" near -192 641 159)
WARNING: repairing invalid texture projection on line 1003 ("sq_flat5_0b" near -304 641 118)
WARNING: repairing invalid texture projection on line 1004 ("sq_flat5_0b" near -256 577 140)
WARNING: repairing invalid texture projection on line 1005 ("sq_flat5_0b" near -256 577 140)
WARNING: repairing invalid texture projection on line 1006 ("sq_flat5_0b" near -256 641 136)
WARNING: repairing invalid texture projection on line 1007 ("sq_flat5_0b" near -304 577 104)
WARNING: repairing invalid texture projection on line 1008 ("sq_flat5_0b" near -304 641 99)
WARNING: repairing invalid texture projection on line 1009 ("sq_flat5_0b" near -256 641 118)
WARNING: repairing invalid texture projection on line 1013 ("sq_flat5_0b" near -960 673 118)
WARNING: repairing invalid texture projection on line 1014 ("sq_flat5_0b" near -496 625 131)
WARNING: repairing invalid texture projection on line 1015 ("sq_flat5_0b" near -960 625 76)
WARNING: repairing invalid texture projection on line 1016 ("sq_flat5_0b" near -496 673 118)
WARNING: repairing invalid texture projection on line 1017 ("sq_flat5_0b" near -496 673 63)
WARNING: repairing invalid texture projection on line 1018 ("sq_flat5_0b" near -496 673 63)
WARNING: repairing invalid texture projection on line 1022 ("sq_flat5_0b" near -496 673 118)
WARNING: repairing invalid texture projection on line 1023 ("sq_flat5_0b" near -384 625 131)
WARNING: repairing invalid texture projection on line 1024 ("sq_flat5_0b" near -496 625 85)
WARNING: repairing invalid texture projection on line 1025 ("sq_flat5_0b" near -384 673 118)
WARNING: repairing invalid texture projection on line 1026 ("sq_flat5_0b" near -384 673 72)
WARNING: repairing invalid texture projection on line 1027 ("sq_flat5_0b" near -384 673 72)
WARNING: repairing invalid texture projection on line 1031 ("sq_flat5_0b" near -384 673 118)
WARNING: repairing invalid texture projection on line 1032 ("sq_flat5_0b" near -304 625 131)
WARNING: repairing invalid texture projection on line 1033 ("sq_flat5_0b" near -384 625 95)
WARNING: repairing invalid texture projection on line 1034 ("sq_flat5_0b" near -304 673 118)
WARNING: repairing invalid texture projection on line 1035 ("sq_flat5_0b" near -304 673 81)
WARNING: repairing invalid texture projection on line 1036 ("sq_flat5_0b" near -304 673 81)
WARNING: repairing invalid texture projection on line 1040 ("sq_flat5_0b" near -960 577 140)
WARNING: repairing invalid texture projection on line 1041 ("sq_flat5_0b" near -496 577 81)
WARNING: repairing invalid texture projection on line 1042 ("sq_flat5_0b" near -960 625 76)
WARNING: repairing invalid texture projection on line 1043 ("sq_flat5_0b" near -496 625 131)
WARNING: repairing invalid texture projection on line 1044 ("sq_flat5_0b" near -496 625 76)
WARNING: repairing invalid texture projection on line 1045 ("sq_flat5_0b" near -496 625 76)
WARNING: repairing invalid texture projection on line 1049 ("sq_flat5_0b" near -496 577 140)
WARNING: repairing invalid texture projection on line 1050 ("sq_flat5_0b" near -384 577 91)
WARNING: repairing invalid texture projection on line 1051 ("sq_flat5_0b" near -496 625 85)
WARNING: repairing invalid texture projection on line 1052 ("sq_flat5_0b" near -384 625 131)
WARNING: repairing invalid texture projection on line 1053 ("sq_flat5_0b" near -384 625 85)
WARNING: repairing invalid texture projection on line 1054 ("sq_flat5_0b" near -384 625 85)
WARNING: repairing invalid texture projection on line 1058 ("sq_flat5_0b" near -384 577 140)
WARNING: repairing invalid texture projection on line 1059 ("sq_flat5_0b" near -304 577 100)
WARNING: repairing invalid texture projection on line 1060 ("sq_flat5_0b" near -384 625 95)
WARNING: repairing invalid texture projection on line 1061 ("sq_flat5_0b" near -304 625 131)
WARNING: repairing invalid texture projection on line 1062 ("sq_flat5_0b" near -304 625 95)
WARNING: repairing invalid texture projection on line 1063 ("sq_flat5_0b" near -304 625 95)
WARNING: repairing invalid texture projection on line 1067 ("sq_flat5_0b" near -960 577 81)
WARNING: repairing invalid texture projection on line 1068 ("sq_flat5_0b" near -496 529 76)
WARNING: repairing invalid texture projection on line 1069 ("sq_flat5_0b" near -960 529 131)
WARNING: repairing invalid texture projection on line 1070 ("sq_flat5_0b" near -496 577 81)
WARNING: repairing invalid texture projection on line 1071 ("sq_flat5_0b" near -496 577 140)
WARNING: repairing invalid texture projection on line 1072 ("sq_flat5_0b" near -496 577 81)
WARNING: repairing invalid texture projection on line 1076 ("sq_flat5_0b" near -496 577 91)
WARNING: repairing invalid texture projection on line 1077 ("sq_flat5_0b" near -384 529 85)
WARNING: repairing invalid texture projection on line 1078 ("sq_flat5_0b" near -496 529 131)
WARNING: repairing invalid texture projection on line 1079 ("sq_flat5_0b" near -384 577 91)
WARNING: repairing invalid texture projection on line 1080 ("sq_flat5_0b" near -384 577 140)
WARNING: repairing invalid texture projection on line 1081 ("sq_flat5_0b" near -384 577 91)
WARNING: repairing invalid texture projection on line 1085 ("sq_flat5_0b" near -384 577 100)
WARNING: repairing invalid texture projection on line 1086 ("sq_flat5_0b" near -304 529 95)
WARNING: repairing invalid texture projection on line 1087 ("sq_flat5_0b" near -384 529 131)
WARNING: repairing invalid texture projection on line 1088 ("sq_flat5_0b" near -304 577 100)
WARNING: repairing invalid texture projection on line 1089 ("sq_flat5_0b" near -304 577 140)
WARNING: repairing invalid texture projection on line 1090 ("sq_flat5_0b" near -304 577 100)
WARNING: repairing invalid texture projection on line 1094 ("sq_flat5_0b" near -960 529 76)
WARNING: repairing invalid texture projection on line 1095 ("sq_flat5_0b" near -496 481 63)
WARNING: repairing invalid texture projection on line 1096 ("sq_flat5_0b" near -960 481 118)
WARNING: repairing invalid texture projection on line 1097 ("sq_flat5_0b" near -496 529 76)
WARNING: repairing invalid texture projection on line 1098 ("sq_flat5_0b" near -496 529 131)
WARNING: repairing invalid texture projection on line 1099 ("sq_flat5_0b" near -496 529 76)
WARNING: repairing invalid texture projection on line 1103 ("sq_flat5_0b" near -496 529 85)
WARNING: repairing invalid texture projection on line 1104 ("sq_flat5_0b" near -384 481 72)
WARNING: repairing invalid texture projection on line 1105 ("sq_flat5_0b" near -496 481 118)
WARNING: repairing invalid texture projection on line 1106 ("sq_flat5_0b" near -384 529 85)
WARNING: repairing invalid texture projection on line 1107 ("sq_flat5_0b" near -384 529 131)
WARNING: repairing invalid texture projection on line 1108 ("sq_flat5_0b" near -384 529 85)
WARNING: repairing invalid texture projection on line 1112 ("sq_flat5_0b" near -384 529 131)
WARNING: repairing invalid texture projection on line 1113 ("sq_flat5_0b" near -384 481 81)
WARNING: repairing invalid texture projection on line 1114 ("sq_flat5_0b" near -304 481 118)
WARNING: repairing invalid texture projection on line 1115 ("sq_flat5_0b" near -304 529 95)
WARNING: repairing invalid texture projection on line 1116 ("sq_flat5_0b" near -304 529 131)
WARNING: repairing invalid texture projection on line 1117 ("sq_flat5_0b" near -304 481 118)
WARNING: repairing invalid texture projection on line 1121 ("sq_flat5_0b" near 304 673 118)
WARNING: repairing invalid texture projection on line 1122 ("sq_flat5_0b" near 384 625 131)
WARNING: repairing invalid texture projection on line 1123 ("sq_flat5_0b" near 304 625 95)
WARNING: repairing invalid texture projection on line 1124 ("sq_flat5_0b" near 384 673 118)
WARNING: repairing invalid texture projection on line 1125 ("sq_flat5_0b" near 384 673 81)
WARNING: repairing invalid texture projection on line 1126 ("sq_flat5_0b" near 384 673 81)
WARNING: repairing invalid texture projection on line 1130 ("sq_flat5_0b" near 384 673 118)
WARNING: repairing invalid texture projection on line 1131 ("sq_flat5_0b" near 496 625 131)
WARNING: repairing invalid texture projection on line 1132 ("sq_flat5_0b" near 384 625 85)
WARNING: repairing invalid texture projection on line 1133 ("sq_flat5_0b" near 496 673 118)
WARNING: repairing invalid texture projection on line 1134 ("sq_flat5_0b" near 496 673 72)
WARNING: repairing invalid texture projection on line 1135 ("sq_flat5_0b" near 496 673 72)
WARNING: repairing invalid texture projection on line 1139 ("sq_flat5_0b" near 304 577 140)
WARNING: repairing invalid texture projection on line 1140 ("sq_flat5_0b" near 384 577 100)
WARNING: repairing invalid texture projection on line 1141 ("sq_flat5_0b" near 304 625 95)
WARNING: repairing invalid texture projection on line 1142 ("sq_flat5_0b" near 384 625 131)
WARNING: repairing invalid texture projection on line 1143 ("sq_flat5_0b" near 384 625 95)
WARNING: repairing invalid texture projection on line 1144 ("sq_flat5_0b" near 384 625 95)
WARNING: repairing invalid texture projection on line 1148 ("sq_flat5_0b" near 384 577 140)
WARNING: repairing invalid texture projection on line 1149 ("sq_flat5_0b" near 496 577 91)
WARNING: repairing invalid texture projection on line 1150 ("sq_flat5_0b" near 384 625 85)
WARNING: repairing invalid texture projection on line 1151 ("sq_flat5_0b" near 496 625 131)
WARNING: repairing invalid texture projection on line 1152 ("sq_flat5_0b" near 496 625 85)
WARNING: repairing invalid texture projection on line 1153 ("sq_flat5_0b" near 496 625 85)
WARNING: repairing invalid texture projection on line 1157 ("sq_flat5_0b" near 304 577 100)
WARNING: repairing invalid texture projection on line 1158 ("sq_flat5_0b" near 384 529 95)
WARNING: repairing invalid texture projection on line 1159 ("sq_flat5_0b" near 304 529 131)
WARNING: repairing invalid texture projection on line 1160 ("sq_flat5_0b" near 384 577 100)
WARNING: repairing invalid texture projection on line 1161 ("sq_flat5_0b" near 384 577 140)
WARNING: repairing invalid texture projection on line 1162 ("sq_flat5_0b" near 384 577 100)
WARNING: repairing invalid texture projection on line 1166 ("sq_flat5_0b" near 384 577 91)
WARNING: repairing invalid texture projection on line 1167 ("sq_flat5_0b" near 496 529 85)
WARNING: repairing invalid texture projection on line 1168 ("sq_flat5_0b" near 384 529 131)
WARNING: repairing invalid texture projection on line 1169 ("sq_flat5_0b" near 496 577 91)
WARNING: repairing invalid texture projection on line 1170 ("sq_flat5_0b" near 496 577 140)
WARNING: repairing invalid texture projection on line 1171 ("sq_flat5_0b" near 496 577 91)
WARNING: repairing invalid texture projection on line 1175 ("sq_flat5_0b" near 304 529 131)
WARNING: repairing invalid texture projection on line 1176 ("sq_flat5_0b" near 304 481 81)
WARNING: repairing invalid texture projection on line 1177 ("sq_flat5_0b" near 384 481 118)
WARNING: repairing invalid texture projection on line 1178 ("sq_flat5_0b" near 384 529 95)
WARNING: repairing invalid texture projection on line 1179 ("sq_flat5_0b" near 384 529 131)
WARNING: repairing invalid texture projection on line 1180 ("sq_flat5_0b" near 384 481 118)
WARNING: repairing invalid texture projection on line 1184 ("sq_flat5_0b" near 384 529 85)
WARNING: repairing invalid texture projection on line 1185 ("sq_flat5_0b" near 496 481 72)
WARNING: repairing invalid texture projection on line 1186 ("sq_flat5_0b" near 384 481 118)
WARNING: repairing invalid texture projection on line 1187 ("sq_flat5_0b" near 496 529 85)
WARNING: repairing invalid texture projection on line 1188 ("sq_flat5_0b" near 496 529 131)
WARNING: repairing invalid texture projection on line 1189 ("sq_flat5_0b" near 496 529 85)
WARNING: repairing invalid texture projection on line 1193 ("sq_flat5_0b" near 496 529 76)
WARNING: repairing invalid texture projection on line 1194 ("sq_flat5_0b" near 960 481 63)
WARNING: repairing invalid texture projection on line 1195 ("sq_flat5_0b" near 496 481 118)
WARNING: repairing invalid texture projection on line 1196 ("sq_flat5_0b" near 960 529 76)
WARNING: repairing invalid texture projection on line 1197 ("sq_flat5_0b" near 960 529 131)
WARNING: repairing invalid texture projection on line 1198 ("sq_flat5_0b" near 960 529 76)
WARNING: repairing invalid texture projection on line 1202 ("sq_flat5_0b" near 496 577 81)
WARNING: repairing invalid texture projection on line 1203 ("sq_flat5_0b" near 960 529 76)
WARNING: repairing invalid texture projection on line 1204 ("sq_flat5_0b" near 496 529 131)
WARNING: repairing invalid texture projection on line 1205 ("sq_flat5_0b" near 960 577 81)
WARNING: repairing invalid texture projection on line 1206 ("sq_flat5_0b" near 960 577 140)
WARNING: repairing invalid texture projection on line 1207 ("sq_flat5_0b" near 960 577 81)
WARNING: repairing invalid texture projection on line 1211 ("sq_flat5_0b" near 496 577 140)
WARNING: repairing invalid texture projection on line 1212 ("sq_flat5_0b" near 960 577 81)
WARNING: repairing invalid texture projection on line 1213 ("sq_flat5_0b" near 496 625 76)
WARNING: repairing invalid texture projection on line 1214 ("sq_flat5_0b" near 960 625 131)
WARNING: repairing invalid texture projection on line 1215 ("sq_flat5_0b" near 960 625 76)
WARNING: repairing invalid texture projection on line 1216 ("sq_flat5_0b" near 960 625 76)
WARNING: repairing invalid texture projection on line 1220 ("sq_flat5_0b" near 496 673 118)
WARNING: repairing invalid texture projection on line 1221 ("sq_flat5_0b" near 960 625 131)
WARNING: repairing invalid texture projection on line 1222 ("sq_flat5_0b" near 496 625 76)
WARNING: repairing invalid texture projection on line 1223 ("sq_flat5_0b" near 960 673 118)
WARNING: repairing invalid texture projection on line 1224 ("sq_flat5_0b" near 960 673 63)
WARNING: repairing invalid texture projection on line 1225 ("sq_flat5_0b" near 960 673 63)
WARNING: repairing invalid texture projection on line 1229 ("tek_grate" near 304 705 -20)
WARNING: repairing invalid texture projection on line 1230 ("tek_grate" near 336 673 -20)
WARNING: repairing invalid texture projection on line 1231 ("tek_grate" near 304 673 -29)
WARNING: repairing invalid texture projection on line 1232 ("tek_grate" near 336 705 -20)
WARNING: repairing invalid texture projection on line 1233 ("tek_grate" near 336 705 -29)
WARNING: repairing invalid texture projection on line 1234 ("tek_grate" near 336 705 -29)
WARNING: repairing invalid texture projection on line 1238 ("tek_grate" near 304 705 63)
WARNING: repairing invalid texture projection on line 1239 ("tek_grate" near 336 673 63)
WARNING: repairing invalid texture projection on line 1240 ("tek_grate" near 304 673 53)
WARNING: repairing invalid texture projection on line 1241 ("tek_grate" near 336 705 63)
WARNING: repairing invalid texture projection on line 1242 ("tek_grate" near 336 705 53)
WARNING: repairing invalid texture projection on line 1243 ("tek_grate" near 336 705 53)
WARNING: repairing invalid texture projection on line 1247 ("tek_grate" near 304 681 53)
WARNING: repairing invalid texture projection on line 1248 ("tek_grate" near 312 673 53)
WARNING: repairing invalid texture projection on line 1249 ("tek_grate" near 304 673 -20)
WARNING: repairing invalid texture projection on line 1250 ("tek_grate" near 312 681 53)
WARNING: repairing invalid texture projection on line 1251 ("tek_grate" near 312 681 -20)
WARNING: repairing invalid texture projection on line 1252 ("tek_grate" near 312 681 -20)
WARNING: repairing invalid texture projection on line 1256 ("tek_grate" near 304 705 53)
WARNING: repairing invalid texture projection on line 1257 ("tek_grate" near 312 697 53)
WARNING: repairing invalid texture projection on line 1258 ("tek_grate" near 304 697 -20)
WARNING: repairing invalid texture projection on line 1259 ("tek_grate" near 312 705 53)
WARNING: repairing invalid texture projection on line 1260 ("tek_grate" near 312 705 -20)
WARNING: repairing invalid texture projection on line 1261 ("tek_grate" near 312 705 -20)
WARNING: repairing invalid texture projection on line 1265 ("tek_grate" near 328 705 53)
WARNING: repairing invalid texture projection on line 1266 ("tek_grate" near 336 697 53)
WARNING: repairing invalid texture projection on line 1267 ("tek_grate" near 328 697 -20)
WARNING: repairing invalid texture projection on line 1268 ("tek_grate" near 336 705 53)
WARNING: repairing invalid texture projection on line 1269 ("tek_grate" near 336 705 -20)
WARNING: repairing invalid texture projection on line 1270 ("tek_grate" near 336 705 -20)
WARNING: repairing invalid texture projection on line 1274 ("tek_grate" near 328 681 53)
WARNING: repairing invalid texture projection on line 1275 ("tek_grate" near 336 673 53)
WARNING: repairing invalid texture projection on line 1276 ("tek_grate" near 328 673 -20)
WARNING: repairing invalid texture projection on line 1277 ("tek_grate" near 336 681 53)
WARNING: repairing invalid texture projection on line 1278 ("tek_grate" near 336 681 -20)
WARNING: repairing invalid texture projection on line 1279 ("tek_grate" near 336 681 -20)
WARNING: repairing invalid texture projection on line 1283 ("sq_flat5_0b" near -96 881 81)
WARNING: repairing invalid texture projection on line 1284 ("sq_flat5_0b" near -96 881 81)
WARNING: repairing invalid texture projection on line 1285 ("sq_flat5_0b" near -48 881 136)
WARNING: repairing invalid texture projection on line 1286 ("sq_flat5_0b" near -96 961 136)
WARNING: repairing invalid texture projection on line 1287 ("sq_flat5_0b" near -48 961 95)
WARNING: repairing invalid texture projection on line 1288 ("sq_flat5_0b" near -48 961 136)
WARNING: repairing invalid texture projection on line 1292 ("sq_flat5_0b" near -200 985 136)
WARNING: repairing invalid texture projection on line 1293 ("sq_flat5_0b" near -96 1073 136)
WARNING: repairing invalid texture projection on line 1294 ("sq_flat5_0b" near -304 881 63)
WARNING: repairing invalid texture projection on line 1295 ("sq_flat5_0b" near -96 881 63)
WARNING: repairing invalid texture projection on line 1296 ("sq_flat5_0b" near -96 881 136)
WARNING: repairing invalid texture projection on line 1297 ("sq_flat5_0b" near -96 1073 136)
WARNING: repairing invalid texture projection on line 1301 ("csl_brk14b" near -304 897 -29)
WARNING: repairing invalid texture projection on line 1302 ("csl_brk14b" near -112 1073 63)
WARNING: repairing invalid texture projection on line 1303 ("csl_brk14b" near -304 897 -29)
WARNING: repairing invalid texture projection on line 1304 ("csl_brk14b" near -304 881 63)
WARNING: repairing invalid texture projection on line 1305 ("csl_brk14b" near -96 1073 -29)
WARNING: repairing invalid texture projection on line 1306 ("csl_brk14b" near -96 1073 -29)
WARNING: repairing invalid texture projection on line 1310 ("csl_brk14b" near -112 1537 63)
WARNING: repairing invalid texture projection on line 1311 ("csl_brk14b" near -96 1073 63)
WARNING: repairing invalid texture projection on line 1312 ("csl_brk14b" near -112 1073 -66)
WARNING: repairing invalid texture projection on line 1313 ("csl_brk14b" near -96 1537 63)
[...]
WARNING: repairing invalid texture projection on line 2747 ("marbdk02" near -288 -240 18)
WARNING: repairing invalid texture projection on line 2748 ("marbdk02" near -96 -240 -93)
WARNING: repairing invalid texture projection on line 2749 ("marbdk02" near -96 -240 -75)
WARNING: repairing invalid texture projection on line 2750 ("marbdk02" near -288 -224 -1)
WARNING: repairing invalid texture projection on line 2751 ("marbdk02" near -96 -224 -75)
WARNING: repairing invalid texture projection on line 2752 ("marbdk02" near -96 -224 -75)
WARNING: repairing invalid texture projection on line 2756 ("marbdk02" near -192 -144 98)
WARNING: repairing invalid texture projection on line 2757 ("marbdk02" near -128 -144 136)
WARNING: repairing invalid texture projection on line 2758 ("marbdk02" near -192 -160 122)
WARNING: repairing invalid texture projection on line 2759 ("marbdk02" near -128 -144 112)
WARNING: repairing invalid texture projection on line 2760 ("marbdk02" near -128 -160 112)
WARNING: repairing invalid texture projection on line 2761 ("marbdk02" near -128 -160 112)
WARNING: repairing invalid texture projection on line 2765 ("stonbr01" near 64 448 -72)
WARNING: repairing invalid texture projection on line 2766 ("stonbr01" near 64 704 -84)
WARNING: repairing invalid texture projection on line 2767 ("stonbr01" near 128 512 -72)
WARNING: repairing invalid texture projection on line 2768 ("stonbr01" near 128 512 -84)
WARNING: repairing invalid texture projection on line 2769 ("stonbr01" near 128 640 -84)
WARNING: repairing invalid texture projection on line 2770 ("stonbr01" near 128 512 -84)
WARNING: repairing invalid texture projection on line 2774 ("stonbr01" near 128 640 -72)
WARNING: repairing invalid texture projection on line 2775 ("stonbr01" near 192 512 -72)
WARNING: repairing invalid texture projection on line 2776 ("stonbr01" near 128 512 -84)
WARNING: repairing invalid texture projection on line 2777 ("stonbr01" near 192 640 -72)
WARNING: repairing invalid texture projection on line 2778 ("stonbr01" near 192 640 -84)
WARNING: repairing invalid texture projection on line 2779 ("stonbr01" near 192 640 -84)
WARNING: repairing invalid texture projection on line 2783 ("stonbr01" near -192 640 -72)
WARNING: repairing invalid texture projection on line 2784 ("stonbr01" near -128 512 -72)
WARNING: repairing invalid texture projection on line 2785 ("stonbr01" near -192 512 -84)
WARNING: repairing invalid texture projection on line 2786 ("stonbr01" near -128 640 -72)
WARNING: repairing invalid texture projection on line 2787 ("stonbr01" near -128 640 -84)
WARNING: repairing invalid texture projection on line 2788 ("stonbr01" near -128 640 -84)
WARNING: repairing invalid texture projection on line 2792 ("stonbr01" near -128 512 -72)
WARNING: repairing invalid texture projection on line 2793 ("stonbr01" near -64 448 -84)
WARNING: repairing invalid texture projection on line 2794 ("stonbr01" near -128 640 -72)
WARNING: repairing invalid texture projection on line 2795 ("stonbr01" near -128 640 -84)
WARNING: repairing invalid texture projection on line 2796 ("stonbr01" near -64 448 -72)
WARNING: repairing invalid texture projection on line 2797 ("stonbr01" near -64 704 -72)
WARNING: repairing invalid texture projection on line 2801 ("__TB_empty" near -824 -103 40)
WARNING: repairing invalid texture projection on line 2802 ("__TB_empty" near -632 -167 40)
WARNING: repairing invalid texture projection on line 2803 ("__TB_empty" near -824 -167 21)
WARNING: repairing invalid texture projection on line 2804 ("__TB_empty" near -632 -103 40)
WARNING: repairing invalid texture projection on line 2805 ("__TB_empty" near -632 -103 21)
WARNING: repairing invalid texture projection on line 2806 ("__TB_empty" near -632 -103 21)
WARNING: repairing invalid texture projection on line 2810 ("__TB_empty" near -632 -103 40)
WARNING: repairing invalid texture projection on line 2811 ("__TB_empty" near -472 -167 40)
WARNING: repairing invalid texture projection on line 2812 ("__TB_empty" near -632 -167 21)
WARNING: repairing invalid texture projection on line 2813 ("__TB_empty" near -472 -103 40)
WARNING: repairing invalid texture projection on line 2814 ("__TB_empty" near -424 -103 21)
WARNING: repairing invalid texture projection on line 2815 ("__TB_empty" near -424 -103 21)
WARNING: repairing invalid texture projection on line 2819 ("__TB_empty" near -984 -167 40)
WARNING: repairing invalid texture projection on line 2820 ("__TB_empty" near -824 -167 21)
WARNING: repairing invalid texture projection on line 2821 ("__TB_empty" near -1032 -103 21)
WARNING: repairing invalid texture projection on line 2822 ("__TB_empty" near -824 -103 40)
WARNING: repairing invalid texture projection on line 2823 ("__TB_empty" near -824 -103 21)
WARNING: repairing invalid texture projection on line 2824 ("__TB_empty" near -824 -103 21)
WARNING: repairing invalid texture projection on line 2828 ("tek_grate" near 304 481 53)
WARNING: repairing invalid texture projection on line 2829 ("tek_grate" near 312 473 53)
WARNING: repairing invalid texture projection on line 2830 ("tek_grate" near 304 473 -20)
WARNING: repairing invalid texture projection on line 2831 ("tek_grate" near 312 481 53)
WARNING: repairing invalid texture projection on line 2832 ("tek_grate" near 312 481 -20)
WARNING: repairing invalid texture projection on line 2833 ("tek_grate" near 312 481 -20)
WARNING: repairing invalid texture projection on line 2837 ("tek_grate" near 304 481 -20)
WARNING: repairing invalid texture projection on line 2838 ("tek_grate" near 336 473 -20)
WARNING: repairing invalid texture projection on line 2839 ("tek_grate" near 304 473 -29)
WARNING: repairing invalid texture projection on line 2840 ("tek_grate" near 336 481 -20)
WARNING: repairing invalid texture projection on line 2841 ("tek_grate" near 336 481 -29)
WARNING: repairing invalid texture projection on line 2842 ("tek_grate" near 336 481 -29)
WARNING: repairing invalid texture projection on line 2846 ("tek_grate" near 328 481 53)
WARNING: repairing invalid texture projection on line 2847 ("tek_grate" near 336 473 53)
WARNING: repairing invalid texture projection on line 2848 ("tek_grate" near 328 473 -20)
WARNING: repairing invalid texture projection on line 2849 ("tek_grate" near 336 481 53)
WARNING: repairing invalid texture projection on line 2850 ("tek_grate" near 336 481 -20)
WARNING: repairing invalid texture projection on line 2851 ("tek_grate" near 336 481 -20)
WARNING: repairing invalid texture projection on line 2855 ("tek_grate" near 304 473 63)
WARNING: repairing invalid texture projection on line 2856 ("tek_grate" near 336 457 63)
WARNING: repairing invalid texture projection on line 2857 ("tek_grate" near 304 457 53)
WARNING: repairing invalid texture projection on line 2858 ("tek_grate" near 336 473 63)
WARNING: repairing invalid texture projection on line 2859 ("tek_grate" near 336 473 53)
WARNING: repairing invalid texture projection on line 2860 ("tek_grate" near 336 473 53)
WARNING: repairing invalid texture projection on line 2864 ("tek_grate" near 304 481 63)
WARNING: repairing invalid texture projection on line 2865 ("tek_grate" near 336 473 63)
WARNING: repairing invalid texture projection on line 2866 ("tek_grate" near 304 473 53)
WARNING: repairing invalid texture projection on line 2867 ("tek_grate" near 336 481 63)
WARNING: repairing invalid texture projection on line 2868 ("tek_grate" near 336 481 53)
WARNING: repairing invalid texture projection on line 2869 ("tek_grate" near 336 481 53)
WARNING: repairing invalid texture projection on line 2873 ("tek_grate" near 304 457 63)
WARNING: repairing invalid texture projection on line 2874 ("tek_grate" near 336 449 63)
WARNING: repairing invalid texture projection on line 2875 ("tek_grate" near 304 449 53)
WARNING: repairing invalid texture projection on line 2876 ("tek_grate" near 336 457 63)
WARNING: repairing invalid texture projection on line 2877 ("tek_grate" near 336 457 53)
WARNING: repairing invalid texture projection on line 2878 ("tek_grate" near 336 457 53)
WARNING: repairing invalid texture projection on line 2882 ("tek_grate" near 328 457 53)
WARNING: repairing invalid texture projection on line 2883 ("tek_grate" near 336 449 53)
WARNING: repairing invalid texture projection on line 2884 ("tek_grate" near 328 449 -20)
WARNING: repairing invalid texture projection on line 2885 ("tek_grate" near 336 457 53)
WARNING: repairing invalid texture projection on line 2886 ("tek_grate" near 336 457 -20)
WARNING: repairing invalid texture projection on line 2887 ("tek_grate" near 336 457 -20)
WARNING: repairing invalid texture projection on line 2891 ("tek_grate" near 304 457 53)
WARNING: repairing invalid texture projection on line 2892 ("tek_grate" near 312 449 53)
WARNING: repairing invalid texture projection on line 2893 ("tek_grate" near 304 449 -20)
WARNING: repairing invalid texture projection on line 2894 ("tek_grate" near 312 457 53)
WARNING: repairing invalid texture projection on line 2895 ("tek_grate" near 312 457 -20)
WARNING: repairing invalid texture projection on line 2896 ("tek_grate" near 312 457 -20)
WARNING: repairing invalid texture projection on line 2900 ("tek_grate" near 304 473 -20)
WARNING: repairing invalid texture projection on line 2901 ("tek_grate" near 336 457 -20)
WARNING: repairing invalid texture projection on line 2902 ("tek_grate" near 304 457 -29)
WARNING: repairing invalid texture projection on line 2903 ("tek_grate" near 336 473 -20)
WARNING: repairing invalid texture projection on line 2904 ("tek_grate" near 336 473 -29)
WARNING: repairing invalid texture projection on line 2905 ("tek_grate" near 336 473 -29)
WARNING: repairing invalid texture projection on line 2909 ("tek_grate" near 304 457 -20)
WARNING: repairing invalid texture projection on line 2910 ("tek_grate" near 336 449 -20)
WARNING: repairing invalid texture projection on line 2911 ("tek_grate" near 304 449 -29)
WARNING: repairing invalid texture projection on line 2912 ("tek_grate" near 336 457 -20)
WARNING: repairing invalid texture projection on line 2913 ("tek_grate" near 336 457 -29)
WARNING: repairing invalid texture projection on line 2914 ("tek_grate" near 336 457 -29)
WARNING: repairing invalid texture projection on line 2918 ("tek_grate" near -336 481 53)
WARNING: repairing invalid texture projection on line 2919 ("tek_grate" near -328 473 53)
WARNING: repairing invalid texture projection on line 2920 ("tek_grate" near -336 473 -20)
WARNING: repairing invalid texture projection on line 2921 ("tek_grate" near -328 481 53)
WARNING: repairing invalid texture projection on line 2922 ("tek_grate" near -328 481 -20)
WARNING: repairing invalid texture projection on line 2923 ("tek_grate" near -328 481 -20)
WARNING: repairing invalid texture projection on line 2927 ("tek_grate" near -336 481 -20)
WARNING: repairing invalid texture projection on line 2928 ("tek_grate" near -304 473 -20)
WARNING: repairing invalid texture projection on line 2929 ("tek_grate" near -336 473 -29)
WARNING: repairing invalid texture projection on line 2930 ("tek_grate" near -304 481 -20)
WARNING: repairing invalid texture projection on line 2931 ("tek_grate" near -304 481 -29)
WARNING: repairing invalid texture projection on line 2932 ("tek_grate" near -304 481 -29)
WARNING: repairing invalid texture projection on line 2936 ("tek_grate" near -312 481 53)
WARNING: repairing invalid texture projection on line 2937 ("tek_grate" near -304 473 53)
WARNING: repairing invalid texture projection on line 2938 ("tek_grate" near -312 473 -20)
WARNING: repairing invalid texture projection on line 2939 ("tek_grate" near -304 481 53)
WARNING: repairing invalid texture projection on line 2940 ("tek_grate" near -304 481 -20)
WARNING: repairing invalid texture projection on line 2941 ("tek_grate" near -304 481 -20)
WARNING: repairing invalid texture projection on line 2945 ("tek_grate" near -336 473 63)
WARNING: repairing invalid texture projection on line 2946 ("tek_grate" near -304 457 63)
WARNING: repairing invalid texture projection on line 2947 ("tek_grate" near -336 457 53)
WARNING: repairing invalid texture projection on line 2948 ("tek_grate" near -304 473 63)
WARNING: repairing invalid texture projection on line 2949 ("tek_grate" near -304 473 53)
WARNING: repairing invalid texture projection on line 2950 ("tek_grate" near -304 473 53)
WARNING: repairing invalid texture projection on line 2954 ("tek_grate" near -336 481 63)
WARNING: repairing invalid texture projection on line 2955 ("tek_grate" near -304 473 63)
WARNING: repairing invalid texture projection on line 2956 ("tek_grate" near -336 473 53)
WARNING: repairing invalid texture projection on line 2957 ("tek_grate" near -304 481 63)
WARNING: repairing invalid texture projection on line 2958 ("tek_grate" near -304 481 53)
WARNING: repairing invalid texture projection on line 2959 ("tek_grate" near -304 481 53)
WARNING: repairing invalid texture projection on line 2963 ("tek_grate" near -336 457 63)
WARNING: repairing invalid texture projection on line 2964 ("tek_grate" near -304 449 63)
WARNING: repairing invalid texture projection on line 2965 ("tek_grate" near -336 449 53)
WARNING: repairing invalid texture projection on line 2966 ("tek_grate" near -304 457 63)
WARNING: repairing invalid texture projection on line 2967 ("tek_grate" near -304 457 53)
WARNING: repairing invalid texture projection on line 2968 ("tek_grate" near -304 457 53)
WARNING: repairing invalid texture projection on line 2972 ("tek_grate" near -312 457 53)
WARNING: repairing invalid texture projection on line 2973 ("tek_grate" near -304 449 53)
WARNING: repairing invalid texture projection on line 2974 ("tek_grate" near -312 449 -20)
WARNING: repairing invalid texture projection on line 2975 ("tek_grate" near -304 457 53)
WARNING: repairing invalid texture projection on line 2976 ("tek_grate" near -304 457 -20)
WARNING: repairing invalid texture projection on line 2977 ("tek_grate" near -304 457 -20)
WARNING: repairing invalid texture projection on line 2981 ("tek_grate" near -336 457 53)
WARNING: repairing invalid texture projection on line 2982 ("tek_grate" near -328 449 53)
WARNING: repairing invalid texture projection on line 2983 ("tek_grate" near -336 449 -20)
WARNING: repairing invalid texture projection on line 2984 ("tek_grate" near -328 457 53)
WARNING: repairing invalid texture projection on line 2985 ("tek_grate" near -328 457 -20)
WARNING: repairing invalid texture projection on line 2986 ("tek_grate" near -328 457 -20)
WARNING: repairing invalid texture projection on line 2990 ("tek_grate" near -336 473 -20)
WARNING: repairing invalid texture projection on line 2991 ("tek_grate" near -304 457 -20)
WARNING: repairing invalid texture projection on line 2992 ("tek_grate" near -336 457 -29)
WARNING: repairing invalid texture projection on line 2993 ("tek_grate" near -304 473 -20)
WARNING: repairing invalid texture projection on line 2994 ("tek_grate" near -304 473 -29)
WARNING: repairing invalid texture projection on line 2995 ("tek_grate" near -304 473 -29)
WARNING: repairing invalid texture projection on line 2999 ("tek_grate" near -336 457 -20)
WARNING: repairing invalid texture projection on line 3000 ("tek_grate" near -304 449 -20)
WARNING: repairing invalid texture projection on line 3001 ("tek_grate" near -336 449 -29)
WARNING: repairing invalid texture projection on line 3002 ("tek_grate" near -304 457 -20)
WARNING: repairing invalid texture projection on line 3003 ("tek_grate" near -304 457 -29)
WARNING: repairing invalid texture projection on line 3004 ("tek_grate" near -304 457 -29)
WARNING: repairing invalid texture projection on line 3008 ("sky_stars" near 0 -144 168)
WARNING: repairing invalid texture projection on line 3009 ("sky_stars" near 0 273 150)
WARNING: repairing invalid texture projection on line 3010 ("sky_stars" near 64 -144 145)
WARNING: repairing invalid texture projection on line 3011 ("sky_stars" near 64 273 163)
WARNING: repairing invalid texture projection on line 3012 ("sky_stars" near 64 -144 163)
WARNING: repairing invalid texture projection on line 3013 ("sky_stars" near 64 -144 145)
WARNING: repairing invalid texture projection on line 3017 ("sky_stars" near 64 -144 163)
WARNING: repairing invalid texture projection on line 3018 ("sky_stars" near 64 273 145)
WARNING: repairing invalid texture projection on line 3019 ("sky_stars" near 128 -144 136)
WARNING: repairing invalid texture projection on line 3020 ("sky_stars" near 128 273 154)
WARNING: repairing invalid texture projection on line 3021 ("sky_stars" near 128 -144 154)
WARNING: repairing invalid texture projection on line 3022 ("sky_stars" near 128 -144 136)
WARNING: repairing invalid texture projection on line 3026 ("sky_stars" near -64 273 145)
WARNING: repairing invalid texture projection on line 3027 ("sky_stars" near 0 273 168)
WARNING: repairing invalid texture projection on line 3028 ("sky_stars" near -64 -144 163)
WARNING: repairing invalid texture projection on line 3029 ("sky_stars" near 0 273 150)
WARNING: repairing invalid texture projection on line 3030 ("sky_stars" near 0 -144 150)
WARNING: repairing invalid texture projection on line 3031 ("sky_stars" near 0 -144 150)
WARNING: repairing invalid texture projection on line 3035 ("sky_stars" near -128 273 136)
WARNING: repairing invalid texture projection on line 3036 ("sky_stars" near -64 273 163)
WARNING: repairing invalid texture projection on line 3037 ("sky_stars" near -128 -144 154)
WARNING: repairing invalid texture projection on line 3038 ("sky_stars" near -64 273 145)
WARNING: repairing invalid texture projection on line 3039 ("sky_stars" near -64 -144 145)
WARNING: repairing invalid texture projection on line 3040 ("sky_stars" near -64 -144 145)
*** WARNING 06: No info_player_deathmatch entities in level
         4234 faces
          662 brushes
           52 entities
           23 unique texnames
         1157 texinfo

Opened WAD: /home/lavender/LibreQuake/texture-wads/lq_medieval.wad
Opened WAD: /home/lavender/LibreQuake/texture-wads/lq_metal.wad
Opened WAD: /home/lavender/LibreQuake/texture-wads/lq_extra.wad
Opened WAD: /home/lavender/LibreQuake/texture-wads/lq_blasphemer.wad
Processing hull 0...
---- Brush_LoadEntity ----
          368 brushes
          292 detail
          952 planes
---- CSGFaces ----
         4222 brushfaces
         5351 csgfaces
         5812 mergedfaces
---- SolidBSP ----
         5022 split nodes
         1032 solid leafs
         3220 empty leafs
          124 water leafs
          647 detail leafs
            0 detail illusionary leafs
            0 detail fence leafs
            0 illusionary visblocker leafs
        12514 leaffaces
        10973 nodefaces
---- Portalize ----
         3991 vis leafs
         3991 vis clusters
        12538 vis portals
---- FillOutside ----
*** WARNING 10: Reached occupant at (-104 488 208), no filling performed.
Leak file written to Clay_draft1.pts
---- MakeFaceEdges ----
---- GrowRegions ----
Processing hull 1...
*** WARNING 10: Reached occupant at (-104 488 208), no filling performed.
Processing hull 2...
*** WARNING 10: Reached occupant at (-104 488 208), no filling performed.
*** WARNING 16: Texture __TB_empty not found
---- WriteBSPFile ----
Wrote Clay_draft1.bsp
         1970 planes            39400
         8796 vertexes         105552
         5022 nodes            120528
          899 texinfo           35960
         7701 faces            154020
         6220 clipnodes         49760
         3345 leafs             93660
         8910 marksurfaces      17820
        30529 surfedges        122116
        19408 edges             77632
           24 textures         613700
              lightdata             0
              visdata               0
              entdata            3108

1.599 seconds elapsed
Peak memory usage: 45430068 (43.3M)
