---- qbsp / ericw-tools  ----
Input file: start.map
Output file: start.bsp

---- LoadMapFile ----
*** WARNING 06: No info_player_deathmatch entities in level
          779 faces
          130 brushes
           92 entities
           40 unique texnames
          170 texinfo

Opened WAD: /home/lavender/LibreQuake/texture-wads/lq_extra.wad
Opened WAD: /home/lavender/LibreQuake/texture-wads/lq_eye.wad
Opened WAD: /home/lavender/LibreQuake/texture-wads/lq_tech.wad
Opened WAD: /home/lavender/LibreQuake/texture-wads/lq_liquidfall.wad
Processing hull 0...
---- Brush_LoadEntity ----
           73 brushes
           40 detail wall
          156 planes
---- CSGFaces ----
          677 brushfaces
          545 csgfaces
          693 mergedfaces
---- SolidBSP ----
          477 split nodes
           60 solid leafs
          305 empty leafs
           11 water leafs
          102 detail leafs
            0 detail illusionary leafs
            0 detail fence leafs
            0 illusionary visblocker leafs
         1847 leaffaces
         1374 nodefaces
---- Portalize ----
          418 vis leafs
          418 vis clusters
          980 vis portals
---- FillOutside ----
           90 outleafs
---- MergeAll ----
          624 mergefaces
---- SolidBSP ----
          299 split nodes
           29 solid leafs
          188 empty leafs
            3 water leafs
           80 detail leafs
            0 detail illusionary leafs
            0 detail fence leafs
            0 illusionary visblocker leafs
         1398 leaffaces
          941 nodefaces
---- Portalize ----
          191 vis leafs
           20 vis clusters
           33 vis portals
---- Tjunc ----
          637 world edges
         2217 edge points
          632 edges added by tjunctions
            0 faces added by tjunctions
---- MakeFaceEdges ----
---- GrowRegions ----
Processing hull 1...
Processing hull 2...
*** WARNING 16: Texture metal2 not found
*** WARNING 16: Texture dirt2 not found
---- WriteBSPFile ----
Wrote start.bsp
          360 planes             7200
          859 vertexes          10308
          387 nodes              9288
          111 texinfo            4440
          621 faces             12420
          691 clipnodes          5528
          278 leafs              7784
          991 marksurfaces       1982
         2920 surfedges         11680
         1570 edges              6280
           60 textures         711124
              lightdata             0
              visdata               0
              entdata            5519

0.111 seconds elapsed
Peak memory usage: 5138434 (4.9M)
