---- qbsp / ericw-tools v0.18.1-388-g6e96ae7c-dirty ----
Input file: start.map
Output file: start.bsp

gamedir: /home/lavender/LQ_Dev/LibreQuake/lq1/
SetQ2dirFromPath: failed to find  in '/home/lavender/LQ_Dev/LibreQuake/lq1/maps/mapsrc/start.map'
---- LoadMapFile ----
*** WARNING 06: No info_player_deathmatch entities in level
         1310 faces
          206 brushes
          117 entities
           63 unique texnames
          439 texinfo

Opened WAD: /home/lavender/LQ_Dev/LibreQuake/texture-wads/lq_extra.wad
Opened WAD: /home/lavender/LQ_Dev/LibreQuake/texture-wads/lq_eye.wad
Opened WAD: /home/lavender/LQ_Dev/LibreQuake/texture-wads/lq_tech.wad
Opened WAD: /home/lavender/LQ_Dev/LibreQuake/texture-wads/lq_liquidfall.wad
Opened WAD: /home/lavender/LQ_Dev/LibreQuake/texture-wads/lq_mayan.wad
Opened WAD: /home/lavender/LQ_Dev/LibreQuake/texture-wads/lq_utility.wad
Processing hull 0...
---- Brush_LoadEntity ----
          146 brushes
            1 detail
           42 detail fence
          434 planes
---- CSGFaces ----
         1208 brushfaces
         1264 csgfaces
         1532 mergedfaces
---- SolidBSP ----
         1580 split nodes
          368 solid leafs
          985 empty leafs
           52 water leafs
            1 detail leafs
            0 detail illusionary leafs
          175 detail fence leafs
            0 illusionary visblocker leafs
         4148 leaffaces
         3186 nodefaces
---- Portalize ----
         1213 vis leafs
         1213 vis clusters
         3369 vis portals
---- FillOutside ----
          265 outleafs
---- MergeAll ----
         1480 mergefaces
---- SolidBSP ----
          723 split nodes
          156 solid leafs
          436 empty leafs
           12 water leafs
            1 detail leafs
            0 detail illusionary leafs
          119 detail fence leafs
            0 illusionary visblocker leafs
         2650 leaffaces
         1867 nodefaces
---- Portalize ----
          567 vis leafs
          216 vis clusters
          656 vis portals
---- Tjunc ----
         1492 world edges
         4668 edge points
         1271 edges added by tjunctions
            0 faces added by tjunctions
---- MakeFaceEdges ----
---- GrowRegions ----
Processing hull 1...
Processing hull 2...
*** WARNING 16: Texture metal2 not found
*** WARNING 16: Texture dirt2 not found
---- WriteBSPFile ----
Writing start.bsp as BSP version Quake BSP
Wrote start.bsp
     13 models      
    977 planes            19540
   1720 vertexes          20640
    814 nodes             19536
    349 texinfos          13960
   1385 faces             27700
   1446 clipnodes         11568
    654 leafs             18312
   2119 marksurfaces       4238
   3345 edges             13380
   6449 surfedges         25796
     96 textures         977568
        lightdata             0
        visdata               0
        entdata            7224

0.169 seconds elapsed
