---- qbsp / ericw-tools  ----
Input file: start.map
Output file: start.bsp

---- LoadMapFile ----
*** WARNING 06: No info_player_deathmatch entities in level
          803 faces
          134 brushes
           94 entities
           40 unique texnames
          194 texinfo

Opened WAD: /home/lavender/LibreQuake/texture-wads/lq_extra.wad
Opened WAD: /home/lavender/LibreQuake/texture-wads/lq_eye.wad
Opened WAD: /home/lavender/LibreQuake/texture-wads/lq_tech.wad
Opened WAD: /home/lavender/LibreQuake/texture-wads/lq_liquidfall.wad
Opened WAD: /home/lavender/Documents/Project-Working/Quake/TextureReplacement/libreq.wad
Processing hull 0...
---- Brush_LoadEntity ----
           76 brushes
           41 detail wall
          157 planes
---- CSGFaces ----
          701 brushfaces
          554 csgfaces
          703 mergedfaces
---- SolidBSP ----
          479 split nodes
           61 solid leafs
          307 empty leafs
           11 water leafs
          101 detail leafs
            0 detail illusionary leafs
            0 detail fence leafs
            0 illusionary visblocker leafs
         1851 leaffaces
         1378 nodefaces
---- Portalize ----
          419 vis leafs
          419 vis clusters
          986 vis portals
---- FillOutside ----
           91 outleafs
---- MergeAll ----
          634 mergefaces
---- SolidBSP ----
          294 split nodes
           29 solid leafs
          184 empty leafs
            3 water leafs
           79 detail leafs
            0 detail illusionary leafs
            0 detail fence leafs
            0 illusionary visblocker leafs
         1394 leaffaces
          951 nodefaces
---- Portalize ----
          187 vis leafs
           21 vis clusters
           36 vis portals
---- Tjunc ----
          649 world edges
         2257 edge points
          624 edges added by tjunctions
            0 faces added by tjunctions
---- MakeFaceEdges ----
---- GrowRegions ----
Processing hull 1...
Processing hull 2...
*** WARNING 16: Texture metal2 not found
*** WARNING 16: Texture dirt2 not found
---- WriteBSPFile ----
Wrote start.bsp
          360 planes             7200
          871 vertexes          10452
          382 nodes              9168
          127 texinfo            5080
          634 faces             12680
          691 clipnodes          5528
          274 leafs              7672
          996 marksurfaces       1992
         2964 surfedges         11856
         1590 edges              6360
           61 textures         635008
              lightdata             0
              visdata               0
              entdata            5770

0.084 seconds elapsed
Peak memory usage: 5196588 (5.0M)
