---- qbsp / ericw-tools  ----
Input file: start.map
Output file: start.bsp

---- LoadMapFile ----
*** WARNING 06: No info_player_deathmatch entities in level
          294 faces
           49 brushes
           61 entities
           17 unique texnames
           55 texinfo

Opened WAD: /home/lavender/LibreQuake/texture-wads/lq.wad
Processing hull 0...
---- Brush_LoadEntity ----
           41 brushes
           38 planes
---- CSGFaces ----
          246 brushfaces
          174 csgfaces
          133 mergedfaces
---- SolidBSP ----
          202 split nodes
           63 solid leafs
          122 empty leafs
           18 water leafs
            0 detail leafs
            0 detail illusionary leafs
            0 detail fence leafs
            0 illusionary visblocker leafs
          444 leaffaces
          430 nodefaces
---- Portalize ----
          140 vis leafs
          140 vis clusters
          308 vis portals
---- FillOutside ----
           99 outleafs
---- MergeAll ----
          106 mergefaces
---- SolidBSP ----
           51 split nodes
           32 solid leafs
           17 empty leafs
            3 water leafs
            0 detail leafs
            0 detail illusionary leafs
            0 detail fence leafs
            0 illusionary visblocker leafs
          206 leaffaces
          158 nodefaces
---- Portalize ----
           20 vis leafs
           20 vis clusters
           36 vis portals
---- Tjunc ----
          135 world edges
          518 edge points
          172 edges added by tjunctions
            0 faces added by tjunctions
---- MakeFaceEdges ----
---- GrowRegions ----
Processing hull 1...
Processing hull 2...
*** WARNING 16: Texture grey_3 not found
---- WriteBSPFile ----
Wrote start.bsp
          105 planes             2100
          274 vertexes           3288
           99 nodes              2376
           44 texinfo            1760
          206 faces              4120
          199 clipnodes          1592
           69 leafs              1932
          254 marksurfaces        508
          996 surfedges          3984
          499 edges              1996
           23 textures         413056
              lightdata             0
              visdata               0
              entdata            4145

0.022 seconds elapsed
Peak memory usage: 1393248 (1.3M)
