---- qbsp / ericw-tools  ----
Input file: start.map
Output file: start.bsp

---- LoadMapFile ----
*** WARNING 06: No info_player_deathmatch entities in level
          865 faces
          139 brushes
           93 entities
           45 unique texnames
          236 texinfo

Opened WAD: /home/lavender/LibreQuake/texture-wads/lq_extra.wad
Opened WAD: /home/lavender/LibreQuake/texture-wads/lq_eye.wad
Opened WAD: /home/lavender/LibreQuake/texture-wads/lq_tech.wad
Opened WAD: /home/lavender/LibreQuake/texture-wads/lq_liquidfall.wad
Opened WAD: /home/lavender/Documents/Project-Working/Quake/TextureReplacement/libreq.wad
Opened WAD: /home/lavender/LibreQuake/texture-wads/lq_prefabs.wad
Processing hull 0...
---- Brush_LoadEntity ----
           81 brushes
           41 detail wall
          211 planes
---- CSGFaces ----
          763 brushfaces
          642 csgfaces
          779 mergedfaces
---- SolidBSP ----
          577 split nodes
           87 solid leafs
          379 empty leafs
           11 water leafs
          101 detail leafs
            0 detail illusionary leafs
            0 detail fence leafs
            0 illusionary visblocker leafs
         2095 leaffaces
         1499 nodefaces
---- Portalize ----
          491 vis leafs
          491 vis clusters
         1265 vis portals
---- FillOutside ----
           91 outleafs
---- MergeAll ----
          710 mergefaces
---- SolidBSP ----
          357 split nodes
           48 solid leafs
          221 empty leafs
            3 water leafs
           86 detail leafs
            0 detail illusionary leafs
            0 detail fence leafs
            0 illusionary visblocker leafs
         1536 leaffaces
         1021 nodefaces
---- Portalize ----
          224 vis leafs
           73 vis clusters
          217 vis portals
---- Tjunc ----
          782 world edges
         2570 edge points
          716 edges added by tjunctions
            0 faces added by tjunctions
---- MakeFaceEdges ----
---- GrowRegions ----
Processing hull 1...
Processing hull 2...
*** WARNING 16: Texture metal2 not found
*** WARNING 16: Texture dirt2 not found
---- WriteBSPFile ----
Wrote start.bsp
          556 planes            11120
          988 vertexes          11856
          445 nodes             10680
          164 texinfo            6560
          729 faces             14580
         1004 clipnodes          8032
          311 leafs              8708
         1142 marksurfaces       2284
         3389 surfedges         13556
         1802 edges              7208
           66 textures         776668
              lightdata             0
              visdata               0
              entdata            5750

0.123 seconds elapsed
Peak memory usage: 6165532 (5.9M)
