---- qbsp / ericw-tools v0.18.1-388-g6e96ae7c-dirty ----
Input file: start.map
Output file: start.bsp

SetQdirFromPath: no "maps" in '/home/lavender/start.map'
---- LoadMapFile ----
*** WARNING 06: No info_player_deathmatch entities in level
         1310 faces
          206 brushes
          118 entities
           63 unique texnames
          439 texinfo

Opened WAD: /home/lavender/LQ_Dev/LibreQuake/texture-wads/lq_dev.wad
Opened WAD: /home/lavender/LQ_Dev/LibreQuake/texture-wads/lq_extra.wad
Opened WAD: /home/lavender/LQ_Dev/LibreQuake/texture-wads/lq_eye.wad
Opened WAD: /home/lavender/LQ_Dev/LibreQuake/texture-wads/lq_tech.wad
Opened WAD: /home/lavender/LQ_Dev/LibreQuake/texture-wads/lq_liquidfall.wad
Opened WAD: /home/lavender/LQ_Dev/LibreQuake/texture-wads/lq_mayan.wad
Processing hull 0...
---- Brush_LoadEntity ----
          145 brushes
            1 detail
           42 detail fence
          434 planes
---- CSGFaces ----
         1202 brushfaces
         1264 csgfaces
         1534 mergedfaces
---- SolidBSP ----
         1579 split nodes
          368 solid leafs
          984 empty leafs
           52 water leafs
            1 detail leafs
            0 detail illusionary leafs
          175 detail fence leafs
            0 illusionary visblocker leafs
         4149 leaffaces
         3187 nodefaces
---- Portalize ----
         1212 vis leafs
         1212 vis clusters
         3364 vis portals
---- FillOutside ----
          265 outleafs
---- MergeAll ----
         1482 mergefaces
---- SolidBSP ----
          723 split nodes
          156 solid leafs
          436 empty leafs
           12 water leafs
            1 detail leafs
            0 detail illusionary leafs
          119 detail fence leafs
            0 illusionary visblocker leafs
         2652 leaffaces
         1869 nodefaces
---- Portalize ----
          567 vis leafs
          216 vis clusters
          656 vis portals
---- Tjunc ----
         1493 world edges
         4676 edge points
         1275 edges added by tjunctions
            0 faces added by tjunctions
---- MakeFaceEdges ----
---- GrowRegions ----
Processing hull 1...
Processing hull 2...
*** WARNING 16: Texture metal2 not found
*** WARNING 16: Texture dirt2 not found
---- WriteBSPFile ----
Writing start.bsp as BSP version Quake BSP
Wrote start.bsp
     14 models      
    982 planes            19640
   1732 vertexes          20784
    820 nodes             19680
    351 texinfos          14040
   1393 faces             27860
   1458 clipnodes         11664
    660 leafs             18480
   2127 marksurfaces       4254
   3363 edges             13452
   6485 surfedges         25940
     96 textures         982328
        lightdata             0
        visdata               0
        entdata            7320

0.143 seconds elapsed
