---- qbsp / ericw-tools  ----
Input file: b_bh100.map
Output file: b_bh100.bsp

---- LoadMapFile ----
*** WARNING 05: No info_player_start entity in level
*** WARNING 06: No info_player_deathmatch entities in level
          336 faces
           50 brushes
           55 entities
            4 unique texnames
           25 texinfo

Opened WAD: /home/lavender/librequartz/FreeAssets/misslav/bspmodels/25hp.wad
Processing hull 0...
---- Brush_LoadEntity ----
           50 brushes
           66 planes
---- CSGFaces ----
          336 brushfaces
          304 csgfaces
          256 mergedfaces
---- SolidBSP ----
          434 split nodes
          123 solid leafs
          312 empty leafs
            0 water leafs
            0 detail leafs
            0 detail illusionary leafs
            0 detail fence leafs
            0 illusionary visblocker leafs
          532 leaffaces
          532 nodefaces
---- Portalize ----
          312 vis leafs
          312 vis clusters
          888 vis portals
---- FillOutside ----
*** WARNING 10: Reached occupant at (-0 -8 -0), no filling performed.
Leak file written to b_bh100.pts
---- MakeFaceEdges ----
---- GrowRegions ----
Processing hull 1...
*** WARNING 10: Reached occupant at (-24 16 16), no filling performed.
Processing hull 2...
*** WARNING 10: Reached occupant at (16 16 64), no filling performed.
---- WriteBSPFile ----
Wrote b_bh100.bsp
          101 planes             2020
          612 vertexes           7344
          434 nodes             10416
           21 texinfo             840
          532 faces             10640
           36 clipnodes           288
          313 leafs              8764
          532 marksurfaces       1064
         2136 surfedges          8544
         1247 edges              4988
            4 textures           9360
              lightdata             0
              visdata               0
              entdata            3243

0.026 seconds elapsed
Peak memory usage: 2038684 (1.9M)
