---- qbsp / ericw-tools  ----
Input file: b_bh10.map
Output file: b_bh10.bsp

---- LoadMapFile ----
*** WARNING 05: No info_player_start entity in level
*** WARNING 06: No info_player_deathmatch entities in level
          266 faces
           39 brushes
            9 entities
            5 unique texnames
           35 texinfo

Opened WAD: /home/lavender/librequartz/FreeAssets/misslav/bspmodels/25hp.wad
Processing hull 0...
---- Brush_LoadEntity ----
           39 brushes
           67 planes
---- CSGFaces ----
          266 brushfaces
          221 csgfaces
          190 mergedfaces
---- SolidBSP ----
          398 split nodes
          158 solid leafs
          241 empty leafs
            0 water leafs
            0 detail leafs
            0 detail illusionary leafs
            0 detail fence leafs
            0 illusionary visblocker leafs
          509 leaffaces
          477 nodefaces
---- Portalize ----
          241 vis leafs
          241 vis clusters
          609 vis portals
---- FillOutside ----
*** WARNING 10: Reached occupant at (-24 16 8), no filling performed.
Leak file written to b_bh10.pts
---- MakeFaceEdges ----
---- GrowRegions ----
Processing hull 1...
*** WARNING 10: Reached occupant at (56 16 8), no filling performed.
Processing hull 2...
*** WARNING 10: Reached occupant at (16 16 40), no filling performed.
---- WriteBSPFile ----
Wrote b_bh10.bsp
          103 planes             2060
          546 vertexes           6552
          398 nodes              9552
           24 texinfo             960
          477 faces              9540
           38 clipnodes           304
          242 leafs              6776
          509 marksurfaces       1018
         1895 surfedges          7580
         1167 edges              4668
            5 textures          31164
              lightdata             0
              visdata               0
              entdata             552

0.022 seconds elapsed
Peak memory usage: 1778172 (1.7M)
