---- qbsp / ericw-tools  ----
Input file: starttest.map
Output file: starttest.bsp

---- LoadMapFile ----
*** WARNING 06: No info_player_deathmatch entities in level
           66 faces
           11 brushes
           58 entities
            6 unique texnames
           18 texinfo

Opened WAD: /home/lavender/LibreQuake/texture-wads/prototype.wad
Processing hull 0...
---- Brush_LoadEntity ----
            9 brushes
           16 planes
---- CSGFaces ----
           54 brushfaces
           47 csgfaces
           40 mergedfaces
---- SolidBSP ----
           59 split nodes
           16 solid leafs
           41 empty leafs
            3 water leafs
            0 detail leafs
            0 detail illusionary leafs
            0 detail fence leafs
            0 illusionary visblocker leafs
          156 leaffaces
          156 nodefaces
---- Portalize ----
           44 vis leafs
           44 vis clusters
          102 vis portals
---- FillOutside ----
           37 outleafs
---- MergeAll ----
           26 mergefaces
---- SolidBSP ----
           15 split nodes
           10 solid leafs
            5 empty leafs
            1 water leafs
            0 detail leafs
            0 detail illusionary leafs
            0 detail fence leafs
            0 illusionary visblocker leafs
           71 leaffaces
           57 nodefaces
---- Portalize ----
            6 vis leafs
            6 vis clusters
            5 vis portals
---- Tjunc ----
           49 world edges
          176 edge points
           62 edges added by tjunctions
            0 faces added by tjunctions
---- MakeFaceEdges ----
---- GrowRegions ----
Processing hull 1...
*** WARNING 19: No entities in empty space -- no filling performed (hull 1)
Processing hull 2...
*** WARNING 19: No entities in empty space -- no filling performed (hull 2)
---- WriteBSPFile ----
Wrote starttest.bsp
           51 planes             1020
           88 vertexes           1056
           27 nodes               648
           11 texinfo             440
           66 faces              1320
          117 clipnodes           936
           19 leafs               532
           80 marksurfaces        160
          322 surfedges          1288
          168 edges               672
            6 textures          70988
              lightdata             0
              visdata               0
              entdata            3640

0.007 seconds elapsed
Peak memory usage: 478020 (466.8k)
