---- qbsp / ericw-tools  ----
Input file: start.map
Output file: start.bsp

---- LoadMapFile ----
*** WARNING 06: No info_player_deathmatch entities in level
          210 faces
           35 brushes
           71 entities
           14 unique texnames
           38 texinfo

Opened WAD: /home/lavender/LibreQuake/texture-wads/prototype.wad
Opened WAD: /home/lavender/LibreQuake/texture-wads/lq.wad
Processing hull 0...
---- Brush_LoadEntity ----
           29 brushes
           28 planes
---- CSGFaces ----
          174 brushfaces
          136 csgfaces
          102 mergedfaces
---- SolidBSP ----
          182 split nodes
           55 solid leafs
          111 empty leafs
           17 water leafs
            0 detail leafs
            0 detail illusionary leafs
            0 detail fence leafs
            0 illusionary visblocker leafs
          401 leaffaces
          394 nodefaces
---- Portalize ----
          128 vis leafs
          128 vis clusters
          272 vis portals
---- FillOutside ----
           92 outleafs
---- MergeAll ----
           78 mergefaces
---- SolidBSP ----
           46 split nodes
           30 solid leafs
           14 empty leafs
            3 water leafs
            0 detail leafs
            0 detail illusionary leafs
            0 detail fence leafs
            0 illusionary visblocker leafs
          168 leaffaces
          137 nodefaces
---- Portalize ----
           17 vis leafs
           17 vis clusters
           22 vis portals
---- Tjunc ----
          115 world edges
          438 edge points
          150 edges added by tjunctions
            0 faces added by tjunctions
---- MakeFaceEdges ----
---- GrowRegions ----
Processing hull 1...
*** WARNING 19: No entities in empty space -- no filling performed (hull 1)
Processing hull 2...
*** WARNING 19: No entities in empty space -- no filling performed (hull 2)
---- WriteBSPFile ----
Wrote start.bsp
           96 planes             1920
          226 vertexes           2712
           82 nodes              1968
           28 texinfo            1120
          170 faces              3400
          317 clipnodes          2536
           54 leafs              1512
          200 marksurfaces        400
          824 surfedges          3296
          420 edges              1680
           16 textures         304328
              lightdata             0
              visdata               0
              entdata            4474

0.020 seconds elapsed
Peak memory usage: 1212832 (1.2M)
