---- qbsp / ericw-tools  ----
Input file: test.map
Output file: test.bsp

---- LoadMapFile ----
*** WARNING 06: No info_player_deathmatch entities in level
          138 faces
           23 brushes
           63 entities
            8 unique texnames
           24 texinfo

Opened WAD: /home/lavender/LibreQuake/texture-wads/prototype.wad
Processing hull 0...
---- Brush_LoadEntity ----
           21 brushes
           22 planes
---- CSGFaces ----
          126 brushfaces
           97 csgfaces
           70 mergedfaces
---- SolidBSP ----
           97 split nodes
           26 solid leafs
           66 empty leafs
            6 water leafs
            0 detail leafs
            0 detail illusionary leafs
            0 detail fence leafs
            0 illusionary visblocker leafs
          255 leaffaces
          254 nodefaces
---- Portalize ----
           72 vis leafs
           72 vis clusters
          166 vis portals
---- FillOutside ----
           58 outleafs
---- MergeAll ----
           46 mergefaces
---- SolidBSP ----
           26 split nodes
           18 solid leafs
            7 empty leafs
            2 water leafs
            0 detail leafs
            0 detail illusionary leafs
            0 detail fence leafs
            0 illusionary visblocker leafs
          115 leaffaces
          100 nodefaces
---- Portalize ----
            9 vis leafs
            9 vis clusters
            7 vis portals
---- Tjunc ----
           82 world edges
          312 edge points
          118 edges added by tjunctions
            0 faces added by tjunctions
---- MakeFaceEdges ----
---- GrowRegions ----
Processing hull 1...
*** WARNING 19: No entities in empty space -- no filling performed (hull 1)
Processing hull 2...
*** WARNING 19: No entities in empty space -- no filling performed (hull 2)
---- WriteBSPFile ----
Wrote test.bsp
           62 planes             1240
          144 vertexes           1728
           38 nodes               912
           14 texinfo             560
          109 faces              2180
          170 clipnodes          1360
           22 leafs               616
          124 marksurfaces        248
          550 surfedges          2200
          282 edges              1128
            8 textures          61556
              lightdata             0
              visdata               0
              entdata            3872

0.015 seconds elapsed
Peak memory usage: 809744 (0.8M)
