---- qbsp / ericw-tools  ----
Input file: turret.map
Output file: turret.bsp

---- LoadMapFile ----
*** WARNING 06: No info_player_deathmatch entities in level
          296 faces
           47 brushes
           20 entities
           13 unique texnames
           89 texinfo

Opened WAD: /home/lavender/LibreQuake/texture-wads/prototype.wad
Processing hull 0...
---- Brush_LoadEntity ----
           27 brushes
           47 planes
---- CSGFaces ----
          162 brushfaces
          144 csgfaces
          132 mergedfaces
---- SolidBSP ----
          178 split nodes
           58 solid leafs
          110 empty leafs
           11 water leafs
            0 detail leafs
            0 detail illusionary leafs
            0 detail fence leafs
            0 illusionary visblocker leafs
          296 leaffaces
          290 nodefaces
---- Portalize ----
          121 vis leafs
          121 vis clusters
          267 vis portals
---- FillOutside ----
           93 outleafs
---- MergeAll ----
           78 mergefaces
---- SolidBSP ----
           35 split nodes
           28 solid leafs
            7 empty leafs
            1 water leafs
            0 detail leafs
            0 detail illusionary leafs
            0 detail fence leafs
            0 illusionary visblocker leafs
           96 leaffaces
           94 nodefaces
---- Portalize ----
            8 vis leafs
            8 vis clusters
            4 vis portals
---- Tjunc ----
          100 world edges
          305 edge points
           58 edges added by tjunctions
            0 faces added by tjunctions
---- MakeFaceEdges ----
---- GrowRegions ----
Processing hull 1...
Processing hull 2...
---- WriteBSPFile ----
Wrote turret.bsp
          249 planes             4980
          324 vertexes           3888
          129 nodes              3096
           70 texinfo            2800
          248 faces              4960
          477 clipnodes          3816
           83 leafs              2324
          274 marksurfaces        548
         1164 surfedges          4656
          583 edges              2332
           13 textures         127736
              lightdata             0
              visdata               0
              entdata            2044

0.027 seconds elapsed
Peak memory usage: 1591436 (1.5M)
